                                  MODFLOW-2005     
      U.S. GEOLOGICAL SURVEY MODULAR FINITE-DIFFERENCE GROUND-WATER FLOW MODEL
                            VERSION 1.12.00 2/3/2017

 LIST FILE: swifogland_s3.list
                         UNIT    2

 OPENING swifogland_s3.dis
 FILE TYPE:DIS   UNIT   11   STATUS:OLD    
 FORMAT:FORMATTED              ACCESS:SEQUENTIAL          

 OPENING swifogland_s3.bas
 FILE TYPE:BAS6   UNIT   13   STATUS:OLD    
 FORMAT:FORMATTED              ACCESS:SEQUENTIAL          

 OPENING swifogland_s3.lpf
 FILE TYPE:LPF   UNIT   15   STATUS:OLD    
 FORMAT:FORMATTED              ACCESS:SEQUENTIAL          

 OPENING swifogland_s3.wel
 FILE TYPE:WEL   UNIT   20   STATUS:OLD    
 FORMAT:FORMATTED              ACCESS:SEQUENTIAL          

 OPENING swifogland_s3.ghb
 FILE TYPE:GHB   UNIT   23   STATUS:OLD    
 FORMAT:FORMATTED              ACCESS:SEQUENTIAL          

 OPENING swifogland_s3.rch
 FILE TYPE:RCH   UNIT   19   STATUS:OLD    
 FORMAT:FORMATTED              ACCESS:SEQUENTIAL          

 OPENING swifogland_s3.swi2
 FILE TYPE:SWI2   UNIT   29   STATUS:OLD    
 FORMAT:FORMATTED              ACCESS:SEQUENTIAL          

 OPENING swifogland_s3.oc
 FILE TYPE:OC   UNIT   14   STATUS:OLD    
 FORMAT:FORMATTED              ACCESS:SEQUENTIAL          

 OPENING swifogland_s3.pcg
 FILE TYPE:PCG   UNIT   27   STATUS:OLD    
 FORMAT:FORMATTED              ACCESS:SEQUENTIAL          

 OPENING swifogland_s3.zta
 FILE TYPE:DATA(BINARY)   UNIT   55   STATUS:REPLACE
 FORMAT:UNFORMATTED            ACCESS:STREAM              

 OPENING swifogland_s3.hds
 FILE TYPE:DATA(BINARY)   UNIT   51   STATUS:REPLACE
 FORMAT:UNFORMATTED            ACCESS:STREAM              

 BAS -- BASIC PACKAGE, VERSION 7, 5/2/2005 INPUT READ FROM UNIT   13
 
 MODFLOW was compiled using mixed precision
 Precision of REAL variables:           6
 Precision of DOUBLE PRECISION variables:          15

 DISCRETIZATION INPUT DATA READ FROM UNIT   11
 # DIS package for  MODFLOW-2005, generated by Flopy.
    3 LAYERS       100 ROWS       100 COLUMNS
    6 STRESS PERIOD(S) IN SIMULATION
 MODEL TIME UNIT IS DAYS
 MODEL LENGTH UNIT IS FEET
  Confining bed flag for each layer:
   0   0   0



                               DELR
 READING ON UNIT   11 WITH FORMAT: (100E15.6)          



                               DELC
 READING ON UNIT   11 WITH FORMAT: (100E15.6)          



           TOP ELEVATION OF LAYER 1
 READING ON UNIT   11 WITH FORMAT: (100E15.6)          

   MODEL LAYER BOTTOM EL. =  -43.0000     FOR LAYER   1

   MODEL LAYER BOTTOM EL. =  -90.0000     FOR LAYER   2

   MODEL LAYER BOTTOM EL. =  -200.000     FOR LAYER   3


 STRESS PERIOD     LENGTH       TIME STEPS     MULTIPLIER FOR DELT    SS FLAG
 ----------------------------------------------------------------------------
        1         73050.00       1000                    1.000         SS
        2         92.00000         92                    1.000         TR
        3         273.0000        273                    1.000         TR
        4         92.00000         92                    1.000         TR
        5         273.0000        273                    1.000         TR
        6         92.00000         92                    1.000         TR

 COMBINED STEADY-STATE AND TRANSIENT SIMULATION



 
 # BAS6 package for  MODFLOW-2005, generated by Flopy.                           
 THE FREE FORMAT OPTION HAS BEEN SELECTED



                     BOUNDARY ARRAY FOR LAYER   1
 READING ON UNIT   13 WITH FORMAT: (100I10)            



                     BOUNDARY ARRAY FOR LAYER   2
 READING ON UNIT   13 WITH FORMAT: (100I10)            



                     BOUNDARY ARRAY FOR LAYER   3
 READING ON UNIT   13 WITH FORMAT: (100I10)            

 AQUIFER HEAD WILL BE SET TO  -999.99     AT ALL NO-FLOW NODES (IBOUND=0).



                       INITIAL HEAD FOR LAYER   1
 READING ON UNIT   13 WITH FORMAT: (100E15.6)          



                       INITIAL HEAD FOR LAYER   2
 READING ON UNIT   13 WITH FORMAT: (100E15.6)          



                       INITIAL HEAD FOR LAYER   3
 READING ON UNIT   13 WITH FORMAT: (100E15.6)          
 # OC package for  MODFLOW-2005, generated by Flopy.

 OUTPUT CONTROL IS SPECIFIED ONLY AT TIME STEPS FOR WHICH OUTPUT IS DESIRED
 COMPACT CELL-BY-CELL BUDGET FILES WILL BE WRITTEN
 AUXILIARY DATA WILL BE SAVED IN CELL-BY-CELL BUDGET FILES
 HEAD PRINT FORMAT CODE IS   0    DRAWDOWN PRINT FORMAT CODE IS   0
 HEADS WILL BE SAVED ON UNIT   51    DRAWDOWNS WILL BE SAVED ON UNIT    0

 LPF -- LAYER-PROPERTY FLOW PACKAGE, VERSION 7, 5/2/2005
         INPUT READ FROM UNIT   15
 # LPF package for  MODFLOW-2005, generated by Flopy.
 HEAD AT CELLS THAT CONVERT TO DRY= -1.00000E+30
 No named parameters

   LAYER FLAGS:
 LAYER       LAYTYP        LAYAVG         CHANI        LAYVKA        LAYWET
 ---------------------------------------------------------------------------
    1             1             0     1.000E+00             0             0
    2             1             0     1.000E+00             0             0
    3             1             0     1.000E+00             0             0

   INTERPRETATION OF LAYER FLAGS:
                        INTERBLOCK     HORIZONTAL    DATA IN
         LAYER TYPE   TRANSMISSIVITY   ANISOTROPY   ARRAY VKA   WETTABILITY
 LAYER      (LAYTYP)      (LAYAVG)       (CHANI)      (LAYVKA)      (LAYWET)
 ---------------------------------------------------------------------------
    1   CONVERTIBLE      HARMONIC     1.000E+00    VERTICAL K  NON-WETTABLE
    2   CONVERTIBLE      HARMONIC     1.000E+00    VERTICAL K  NON-WETTABLE
    3   CONVERTIBLE      HARMONIC     1.000E+00    VERTICAL K  NON-WETTABLE

 WETTING CAPABILITY IS NOT ACTIVE IN ANY LAYER

    HYD. COND. ALONG ROWS =  0.395000     FOR LAYER   1

      VERTICAL HYD. COND. =  3.950000E-02 FOR LAYER   1

         SPECIFIC STORAGE =  1.000000E-04 FOR LAYER   1

           SPECIFIC YIELD =  1.000000E-04 FOR LAYER   1

    HYD. COND. ALONG ROWS =  0.395000     FOR LAYER   2

      VERTICAL HYD. COND. =  3.950000E-02 FOR LAYER   2

         SPECIFIC STORAGE =  1.000000E-04 FOR LAYER   2

           SPECIFIC YIELD =  1.000000E-04 FOR LAYER   2

    HYD. COND. ALONG ROWS =  0.395000     FOR LAYER   3

      VERTICAL HYD. COND. =  3.950000E-02 FOR LAYER   3

         SPECIFIC STORAGE =  1.000000E-04 FOR LAYER   3

           SPECIFIC YIELD =  1.000000E-04 FOR LAYER   3

 WEL -- WELL PACKAGE, VERSION 7, 5/2/2005 INPUT READ FROM UNIT   20
 # WEL package for  MODFLOW-2005, generated by Flopy.
 No named parameters
 MAXIMUM OF     16 ACTIVE WELLS AT ONE TIME


     0 Well parameters

 GHB -- GENERAL-HEAD BOUNDARY PACKAGE, VERSION 7, 5/2/2005
         INPUT READ FROM UNIT   23
 # GHB package for  MODFLOW-2005, generated by Flopy.
 No named parameters
 MAXIMUM OF   8042 ACTIVE GHB CELLS AT ONE TIME


     0 GHB parameters

 RCH -- RECHARGE PACKAGE, VERSION 7, 5/2/2005 INPUT READ FROM UNIT   19
 # RCH package for  MODFLOW-2005, generated by Flopy.
 No named parameters
 OPTION 3 -- RECHARGE TO HIGHEST ACTIVE NODE IN EACH VERTICAL COLUMN


     0 Recharge parameters

 PCG -- CONJUGATE-GRADIENT SOLUTION PACKAGE, VERSION 7, 5/2/2005
 # PCG package for  MODFLOW-2005, generated by Flopy.
 MAXIMUM OF    100 CALLS OF SOLUTION ROUTINE
 MAXIMUM OF     50 INTERNAL ITERATIONS PER CALL TO SOLUTION ROUTINE
 MATRIX PRECONDITIONING TYPE :    1



                                    SOLUTION BY THE CONJUGATE-GRADIENT METHOD
                                   -------------------------------------------
                    MAXIMUM NUMBER OF CALLS TO PCG ROUTINE =      100
                        MAXIMUM ITERATIONS PER CALL TO PCG =       50
                               MATRIX PRECONDITIONING TYPE =        1
        RELAXATION FACTOR (ONLY USED WITH PRECOND. TYPE 1) =    0.10000E+01
 PARAMETER OF POLYNOMIAL PRECOND. = 2 (2) OR IS CALCULATED :        0
                         HEAD CHANGE CRITERION FOR CLOSURE =    0.10000E-05
                     RESIDUAL CHANGE CRITERION FOR CLOSURE =    0.30000E-02
            PCG HEAD AND RESIDUAL CHANGE PRINTOUT INTERVAL =      999
     PRINTING FROM SOLVER IS LIMITED(1) OR SUPPRESSED (>1) =        3
                            STEADY-STATE DAMPING PARAMETER =    0.10000E+01
                               TRANSIENT DAMPING PARAMETER =    0.10000E+01


 SWI2 -- SWI PACKAGE, VERSION 2.0.0, 07/22/2013
 --------------------------------------------------
 SWI2 INPUT READ FROM UNIT 29


 # SWI2 package for  MODFLOW-2005, generated by Flopy.
 # Dataset 1


 SWI2 DATASET 1
 ----------------------------------------------------
 NUMBER OF SURFACES (NSRF):                         1
 TOTAL NUMBER OF ZONES:                             2
 DENSITY DISTRIBUTION OPTION (ISTRAT):              1
   VARIABLE DENSITY FLOW -- ISTRAT = 0
   STRATIFIED FLOW       -- ISTRAT = 1
 NUMBER OF SWI OBSERVATIONS (NOBS):                 0
 ZETA OUTPUT FILE UNIT NUMBER (ISWIZT):            55
 BUDGET OUTPUT FILE UNIT NUMBER (ISWICB):           0
 OBSERVATION OUTPUT FILE UNIT NUMBER (ISWIOBS):     0
 ----------------------------------------------------
 # Dataset 2a


 SWI2 DATASET 2A
 ----------------------------------------------------
 SOLVER (NSOLVER):                                  2
   SOLVER =  PRECONDITIONED CONJUGATE GRADIENT (PCG)
 SOLVER PRINTOUT INTERVAL (IPRSOL):               999
 SOLVER OUTPUT FLAG (MUTSOL):                       3
   0 = PRINTING EVERY ITERATION
   1 = LIMITED (TOTAL NUMBER OF ITERATIONS)
   2 = NO PRINTING
   3 = ONLY IF CONVERGENCE FAILS
 ----------------------------------------------------
 # Dataset 2b


 SWI2 DATASET 2B
 PRECONDITIONED CONJUGATE GRADIENT PARAMETERS
 ----------------------------------------------------
 MAXIMUM NUMBER OF CALLS TO PCG (MXITER):         100
 MAXIMUM ITERATIONS PER CALL TO PCG (ITER1):       20
 MATRIX PRECONDITIONING TYPE (NPCOND):              1
   1 = MODIFIED INCOMPLETE CHOLESKY
   2 = NEUMANN POLYNOMIAL - THE MATRIX WILL BE SCALED
 ZETA CLOSURE CRITERION (ZCLOSE):         0.10000E-02
 RESIDUAL CLOSURE CRITERION (RCLOSE):     0.10000E-03
 RELAXATION FACTOR (RELAX):                1.0000    
   ONLY USED WITH NPCOND = 1
 POLYNOMIAL PRECONDITIONER PARAMETER (NBPOL):       2
   INTERNALLY CALCULATED IF NPCOND.NE.2
 STEADY-STATE DAMPING (DAMPPCG):           1.0000    
 TRANSIENT DAMPING (DAMPPCGT):             1.0000    
 ----------------------------------------------------
 # Dataset 3a


 SWI2 DATASET 3A
 ----------------------------------------------------
 MAXIMUM TOE SURFACE SLOPE (TOESLOPE):      0.100    
 MAXIMUM TIP SURFACE SLOPE (TIPSLOPE):      0.100    
 EXCESS SURFACE SLOPE FRACTION (ALPHA):     0.100    
 MINIMUM ZONE THICKNESS FRACTION (BETA):    0.100    
 ----------------------------------------------------



                             NUZONE
 READING ON UNIT   29 WITH FORMAT: (2E15.6)            



                   ZETA SURFACE  1  FOR LAYER   1
 READING ON UNIT   29 WITH FORMAT: (100E15.6)          



                   ZETA SURFACE  1  FOR LAYER   2
 READING ON UNIT   29 WITH FORMAT: (100E15.6)          



                   ZETA SURFACE  1  FOR LAYER   3
 READING ON UNIT   29 WITH FORMAT: (100E15.6)          

                      SSZ =  1.400000E-03 FOR LAYER   1

                      SSZ =  1.400000E-03 FOR LAYER   2

                      SSZ =  1.400000E-03 FOR LAYER   3



                            IZONENR FOR LAYER   1
 READING ON UNIT   29 WITH FORMAT: (100I10)            



                            IZONENR FOR LAYER   2
 READING ON UNIT   29 WITH FORMAT: (100I10)            



                            IZONENR FOR LAYER   3
 READING ON UNIT   29 WITH FORMAT: (100I10)            
1
                            STRESS PERIOD NO.    1, LENGTH =   73050.00    
                            -----------------------------------------------

                              NUMBER OF TIME STEPS =  1000

                               MULTIPLIER FOR DELT =     1.000

                            INITIAL TIME STEP SIZE =   73.05000    

 WELL NO.  LAYER   ROW   COL   STRESS RATE         
 --------------------------------------------------
      1      1     61     33       0.000    
      2      1     59     38       0.000    
      3      2     59     43       0.000    
      4      2     57     43       0.000    
      5      2     54     36       0.000    
      6      2     52     38       0.000    
      7      2     49     48       0.000    
      8      2     45     36       0.000    
      9      2     44     38       0.000    
     10      1     43     40       0.000    
     11      2     43     49       0.000    
     12      2     40     39       0.000    
     13      3     38     43       0.000    
     14      1     37     38       0.000    
     15      2     31     47       0.000    
     16      2     27     41       0.000    

     16 WELLS

 BOUND. NO. LAYER   ROW   COL     STAGE      CONDUCTANCE         
 ----------------------------------------------------------------
      1      1      1      1      0.3710          0.6804E+06
      2      1      1      2      0.3728          0.6804E+06
      3      1      1      3      0.3752          0.6804E+06
      4      1      1      4      0.3788          0.6804E+06
      5      1      1      5      0.3831          0.6804E+06
      6      1      1      6      0.3866          0.6804E+06
      7      1      1      7      0.3899          0.6804E+06
      8      1      1      8      0.3923          0.6804E+06
      9      1      1      9      0.3929          0.6804E+06
     10      1      1     10      0.3920          0.6804E+06
     11      1      1     11      0.3898          0.6804E+06
     12      1      1     12      0.3858          0.6804E+06
     13      1      1     13      0.3804          0.6804E+06
     14      1      1     14      0.3745          0.6804E+06
     15      1      1     15      0.3653          0.6804E+06
     16      1      1     16      0.3536          0.6804E+06
     17      1      1     17      0.3377          0.6804E+06
     18      1      1     18      0.3210          0.6804E+06
     19      1      1     19      0.3060          0.6804E+06
     20      1      1     20      0.2933          0.6804E+06
     21      1      1     21      0.2859          0.6804E+06
     22      1      1     22      0.2825          0.6804E+06
     23      1      1     23      0.2793          0.6804E+06
     24      1      1     24      0.2771          0.6804E+06
     25      1      1     25      0.2757          0.6804E+06
     26      1      1     26      0.2760          0.6804E+06
     27      1      1     27      0.2781          0.6804E+06
     28      1      1     28      0.2828          0.6804E+06
     29      1      1     29      0.2895          0.6804E+06
     30      1      1     30      0.2965          0.6804E+06
     31      1      1     31      0.3052          0.6804E+06
     32      1      1     32      0.3127          0.6804E+06
     33      1      1     33      0.3202          0.6804E+06
     34      1      1     34      0.3261          0.6804E+06
     35      1      1     35      0.3301          0.6804E+06
     36      1      1     36      0.3340          0.6804E+06
     37      1      1     37      0.3365          0.6804E+06
     38      1      1     38      0.3374          0.6804E+06
     39      1      1     39      0.3370          0.6804E+06
     40      1      1     40      0.3368          0.6804E+06
     41      1      1     41      0.3368          0.6804E+06
     42      1      1     42      0.3373          0.6804E+06
     43      1      1     43      0.3383          0.6804E+06
     44      1      1     44      0.3403          0.6804E+06
     45      1      1     45      0.3423          0.6804E+06
     46      1      1     46      0.3432          0.6804E+06
     47      1      1     47      0.3432          0.6804E+06
     48      1      1     48      0.3427          0.6804E+06
     49      1      1     49      0.3409          0.6804E+06
     50      1      1     50      0.3379          0.6804E+06
     51      1      1     51      0.3343          0.6804E+06
     52      1      1     52      0.3286          0.6804E+06
     53      1      1     53      0.3224          0.6804E+06
     54      1      1     54      0.3148          0.6804E+06
     55      1      1     55      0.3072          0.6804E+06
     56      1      1     56      0.3003          0.6804E+06
     57      1      1     57      0.2926          0.6804E+06
     58      1      1     58      0.2852          0.6804E+06
     59      1      1     59      0.2786          0.6804E+06
     60      1      1     60      0.2703          0.6804E+06
     61      1      1     61      0.2632          0.6804E+06
     62      1      1     62      0.2554          0.6804E+06
     63      1      1     63      0.2480          0.6804E+06
     64      1      1     64      0.2423          0.6804E+06
     65      1      1     65      0.2365          0.6804E+06
     66      1      1     66      0.2312          0.6804E+06
     67      1      1     67      0.2269          0.6804E+06
     68      1      1     68      0.2222          0.6804E+06
     69      1      1     69      0.2181          0.6804E+06
     70      1      1     70      0.2135          0.6804E+06
     71      1      1     71      0.2088          0.6804E+06
     72      1      1     72      0.2045          0.6804E+06
     73      1      1     73      0.1995          0.6804E+06
     74      1      1     74      0.1936          0.6804E+06
     75      1      1     75      0.1881          0.6804E+06
     76      1      1     76      0.1818          0.6804E+06
     77      1      1     77      0.1766          0.6804E+06
     78      1      1     78      0.1703          0.6804E+06
     79      1      1     79      0.1635          0.6804E+06
     80      1      1     80      0.1576          0.6804E+06
     81      1      1     81      0.1510          0.6804E+06
     82      1      1     82      0.1439          0.6804E+06
     83      1      1     83      0.1376          0.6804E+06
     84      1      1     84      0.1302          0.6804E+06
     85      1      1     85      0.1231          0.6804E+06
     86      1      1     86      0.1147          0.6804E+06
     87      1      1     87      0.1067          0.6804E+06
     88      1      1     88      0.9976E-01      0.6804E+06
     89      1      1     89      0.9168E-01      0.6804E+06
     90      1      1     90      0.8364E-01      0.6804E+06
     91      1      1     91      0.7626E-01      0.6804E+06
     92      1      1     92      0.6793E-01      0.6804E+06
     93      1      1     93      0.6125E-01      0.6804E+06
     94      1      1     94      0.5478E-01      0.6804E+06
     95      1      1     95      0.4816E-01      0.6804E+06
     96      1      1     96      0.4179E-01      0.6804E+06
     97      1      1     97      0.3279E-01      0.6804E+06
     98      1      1     98      0.2161E-01      0.6804E+06
     99      1      1     99      0.7204E-02      0.6804E+06
    100      1      1    100       0.000          0.6804E+06
    101      1      2      1      0.3913          0.6804E+06
    102      1      2      2      0.3922          0.6804E+06
    103      1      2      3      0.3938          0.6804E+06
    104      1      2      4      0.3965          0.6804E+06
    105      1      2      5      0.3999          0.6804E+06
    106      1      2      6      0.4025          0.6804E+06
    107      1      2      7      0.4047          0.6804E+06
    108      1      2      8      0.4059          0.6804E+06
    109      1      2      9      0.4053          0.6804E+06
    110      1      2     10      0.4027          0.6804E+06
    111      1      2     11      0.3992          0.6804E+06
    112      1      2     12      0.3938          0.6804E+06
    113      1      2     13      0.3871          0.6804E+06
    114      1      2     14      0.3803          0.6804E+06
    115      1      2     15      0.3704          0.6804E+06
    116      1      2     16      0.3595          0.6804E+06
    117      1      2     17      0.3453          0.6804E+06
    118      1      2     18      0.3303          0.6804E+06
    119      1      2     19      0.3173          0.6804E+06
    120      1      2     20      0.3050          0.6804E+06
    121      1      2     21      0.2960          0.6804E+06
    122      1      2     22      0.2899          0.6804E+06
    123      1      2     23      0.2837          0.6804E+06
    124      1      2     24      0.2789          0.6804E+06
    125      1      2     25      0.2743          0.6804E+06
    126      1      2     26      0.2719          0.6804E+06
    127      1      2     27      0.2726          0.6804E+06
    128      1      2     28      0.2766          0.6804E+06
    129      1      2     29      0.2834          0.6804E+06
    130      1      2     30      0.2910          0.6804E+06
    131      1      2     31      0.3009          0.6804E+06
    132      1      2     32      0.3095          0.6804E+06
    133      1      2     33      0.3174          0.6804E+06
    134      1      2     34      0.3222          0.6804E+06
    135      1      2     35      0.3237          0.6804E+06
    136      1      2     36      0.3243          0.6804E+06
    137      1      2     37      0.3245          0.6804E+06
    138      1      2     38      0.3251          0.6804E+06
    139      1      2     39      0.3265          0.6804E+06
    140      1      2     40      0.3272          0.6804E+06
    141      1      2     41      0.3274          0.6804E+06
    142      1      2     42      0.3280          0.6804E+06
    143      1      2     43      0.3294          0.6804E+06
    144      1      2     44      0.3322          0.6804E+06
    145      1      2     45      0.3351          0.6804E+06
    146      1      2     46      0.3370          0.6804E+06
    147      1      2     47      0.3380          0.6804E+06
    148      1      2     48      0.3379          0.6804E+06
    149      1      2     49      0.3359          0.6804E+06
    150      1      2     50      0.3320          0.6804E+06
    151      1      2     51      0.3275          0.6804E+06
    152      1      2     52      0.3212          0.6804E+06
    153      1      2     53      0.3148          0.6804E+06
    154      1      2     54      0.3071          0.6804E+06
    155      1      2     55      0.2993          0.6804E+06
    156      1      2     56      0.2923          0.6804E+06
    157      1      2     57      0.2846          0.6804E+06
    158      1      2     58      0.2772          0.6804E+06
    159      1      2     59      0.2704          0.6804E+06
    160      1      2     60      0.2623          0.6804E+06
    161      1      2     61      0.2555          0.6804E+06
    162      1      2     62      0.2482          0.6804E+06
    163      1      2     63      0.2412          0.6804E+06
    164      1      2     64      0.2355          0.6804E+06
    165      1      2     65      0.2296          0.6804E+06
    166      1      2     66      0.2239          0.6804E+06
    167      1      2     67      0.2193          0.6804E+06
    168      1      2     68      0.2143          0.6804E+06
    169      1      2     69      0.2102          0.6804E+06
    170      1      2     70      0.2056          0.6804E+06
    171      1      2     71      0.2012          0.6804E+06
    172      1      2     72      0.1974          0.6804E+06
    173      1      2     73      0.1926          0.6804E+06
    174      1      2     74      0.1874          0.6804E+06
    175      1      2     75      0.1824          0.6804E+06
    176      1      2     76      0.1762          0.6804E+06
    177      1      2     77      0.1705          0.6804E+06
    178      1      2     78      0.1635          0.6804E+06
    179      1      2     79      0.1561          0.6804E+06
    180      1      2     80      0.1499          0.6804E+06
    181      1      2     81      0.1434          0.6804E+06
    182      1      2     82      0.1360          0.6804E+06
    183      1      2     83      0.1293          0.6804E+06
    184      1      2     84      0.1214          0.6804E+06
    185      1      2     85      0.1141          0.6804E+06
    186      1      2     86      0.1061          0.6804E+06
    187      1      2     87      0.9897E-01      0.6804E+06
    188      1      2     88      0.9295E-01      0.6804E+06
    189      1      2     89      0.8604E-01      0.6804E+06
    190      1      2     90      0.7935E-01      0.6804E+06
    191      1      2     91      0.7276E-01      0.6804E+06
    192      1      2     92      0.6489E-01      0.6804E+06
    193      1      2     93      0.5824E-01      0.6804E+06
    194      1      2     94      0.5107E-01      0.6804E+06
    195      1      2     95      0.4232E-01      0.6804E+06
    196      1      2     96      0.3331E-01      0.6804E+06
    197      1      2     97      0.2064E-01      0.6804E+06
    198      1      2     98      0.8544E-02      0.6804E+06
    199      1      2     99       0.000          0.6804E+06
    200      1      2    100     -0.5911E-01      0.6804E+06
    201      1      3      1      0.4115          0.6804E+06
    202      1      3      2      0.4113          0.6804E+06
    203      1      3      3      0.4120          0.6804E+06
    204      1      3      4      0.4138          0.6804E+06
    205      1      3      5      0.4163          0.6804E+06
    206      1      3      6      0.4181          0.6804E+06
    207      1      3      7      0.4195          0.6804E+06
    208      1      3      8      0.4196          0.6804E+06
    209      1      3      9      0.4177          0.6804E+06
    210      1      3     10      0.4133          0.6804E+06
    211      1      3     11      0.4082          0.6804E+06
    212      1      3     12      0.4012          0.6804E+06
    213      1      3     13      0.3932          0.6804E+06
    214      1      3     14      0.3854          0.6804E+06
    215      1      3     15      0.3752          0.6804E+06
    216      1      3     16      0.3652          0.6804E+06
    217      1      3     17      0.3530          0.6804E+06
    218      1      3     18      0.3404          0.6804E+06
    219      1      3     19      0.3296          0.6804E+06
    220      1      3     20      0.3182          0.6804E+06
    221      1      3     21      0.3077          0.6804E+06
    222      1      3     22      0.2987          0.6804E+06
    223      1      3     23      0.2890          0.6804E+06
    224      1      3     24      0.2810          0.6804E+06
    225      1      3     25      0.2728          0.6804E+06
    226      1      3     26      0.2669          0.6804E+06
    227      1      3     27      0.2660          0.6804E+06
    228      1      3     28      0.2689          0.6804E+06
    229      1      3     29      0.2754          0.6804E+06
    230      1      3     30      0.2834          0.6804E+06
    231      1      3     31      0.2948          0.6804E+06
    232      1      3     32      0.3052          0.6804E+06
    233      1      3     33      0.3141          0.6804E+06
    234      1      3     34      0.3172          0.6804E+06
    235      1      3     35      0.3143          0.6804E+06
    236      1      3     36      0.3098          0.6804E+06
    237      1      3     37      0.3063          0.6804E+06
    238      1      3     38      0.3061          0.6804E+06
    239      1      3     39      0.3091          0.6804E+06
    240      1      3     40      0.3112          0.6804E+06
    241      1      3     41      0.3127          0.6804E+06
    242      1      3     42      0.3144          0.6804E+06
    243      1      3     43      0.3167          0.6804E+06
    244      1      3     44      0.3204          0.6804E+06
    245      1      3     45      0.3245          0.6804E+06
    246      1      3     46      0.3277          0.6804E+06
    247      1      3     47      0.3305          0.6804E+06
    248      1      3     48      0.3315          0.6804E+06
    249      1      3     49      0.3295          0.6804E+06
    250      1      3     50      0.3247          0.6804E+06
    251      1      3     51      0.3192          0.6804E+06
    252      1      3     52      0.3122          0.6804E+06
    253      1      3     53      0.3055          0.6804E+06
    254      1      3     54      0.2977          0.6804E+06
    255      1      3     55      0.2900          0.6804E+06
    256      1      3     56      0.2831          0.6804E+06
    257      1      3     57      0.2759          0.6804E+06
    258      1      3     58      0.2683          0.6804E+06
    259      1      3     59      0.2612          0.6804E+06
    260      1      3     60      0.2535          0.6804E+06
    261      1      3     61      0.2472          0.6804E+06
    262      1      3     62      0.2403          0.6804E+06
    263      1      3     63      0.2336          0.6804E+06
    264      1      3     64      0.2280          0.6804E+06
    265      1      3     65      0.2220          0.6804E+06
    266      1      3     66      0.2162          0.6804E+06
    267      1      3     67      0.2112          0.6804E+06
    268      1      3     68      0.2060          0.6804E+06
    269      1      3     69      0.2019          0.6804E+06
    270      1      3     70      0.1975          0.6804E+06
    271      1      3     71      0.1934          0.6804E+06
    272      1      3     72      0.1897          0.6804E+06
    273      1      3     73      0.1853          0.6804E+06
    274      1      3     74      0.1810          0.6804E+06
    275      1      3     75      0.1767          0.6804E+06
    276      1      3     76      0.1706          0.6804E+06
    277      1      3     77      0.1643          0.6804E+06
    278      1      3     78      0.1565          0.6804E+06
    279      1      3     79      0.1488          0.6804E+06
    280      1      3     80      0.1425          0.6804E+06
    281      1      3     81      0.1357          0.6804E+06
    282      1      3     82      0.1279          0.6804E+06
    283      1      3     83      0.1208          0.6804E+06
    284      1      3     84      0.1125          0.6804E+06
    285      1      3     85      0.1051          0.6804E+06
    286      1      3     86      0.9746E-01      0.6804E+06
    287      1      3     87      0.9132E-01      0.6804E+06
    288      1      3     88      0.8641E-01      0.6804E+06
    289      1      3     89      0.8056E-01      0.6804E+06
    290      1      3     90      0.7421E-01      0.6804E+06
    291      1      3     91      0.6800E-01      0.6804E+06
    292      1      3     92      0.6032E-01      0.6804E+06
    293      1      3     93      0.5337E-01      0.6804E+06
    294      1      3     94      0.4518E-01      0.6804E+06
    295      1      3     95      0.3411E-01      0.6804E+06
    296      1      3     96      0.2197E-01      0.6804E+06
    297      1      3     97      0.8253E-02      0.6804E+06
    298      1      3     98       0.000          0.6804E+06
    299      1      3     99     -0.5216E-01      0.6804E+06
    300      1      3    100     -0.8953E-01      0.6804E+06
    301      1      4      1      0.4282          0.6804E+06
    302      1      4      2      0.4272          0.6804E+06
    303      1      4      3      0.4272          0.6804E+06
    304      1      4      4      0.4282          0.6804E+06
    305      1      4      5      0.4300          0.6804E+06
    306      1      4      6      0.4313          0.6804E+06
    307      1      4      7      0.4321          0.6804E+06
    308      1      4      8      0.4313          0.6804E+06
    309      1      4      9      0.4281          0.6804E+06
    310      1      4     10      0.4220          0.6804E+06
    311      1      4     11      0.4155          0.6804E+06
    312      1      4     12      0.4071          0.6804E+06
    313      1      4     13      0.3978          0.6804E+06
    314      1      4     14      0.3892          0.6804E+06
    315      1      4     15      0.3790          0.6804E+06
    316      1      4     16      0.3698          0.6804E+06
    317      1      4     17      0.3590          0.6804E+06
    318      1      4     18      0.3485          0.6804E+06
    319      1      4     19      0.3396          0.6804E+06
    320      1      4     20      0.3291          0.6804E+06
    321      1      4     21      0.3177          0.6804E+06
    322      1      4     22      0.3063          0.6804E+06
    323      1      4     23      0.2937          0.6804E+06
    324      1      4     24      0.2832          0.6804E+06
    325      1      4     25      0.2722          0.6804E+06
    326      1      4     26      0.2635          0.6804E+06
    327      1      4     27      0.2601          0.6804E+06
    328      1      4     28      0.2609          0.6804E+06
    329      1      4     29      0.2663          0.6804E+06
    330      1      4     30      0.2744          0.6804E+06
    331      1      4     31      0.2869          0.6804E+06
    332      1      4     32      0.2993          0.6804E+06
    333      1      4     33      0.3096          0.6804E+06
    334      1      4     34      0.3110          0.6804E+06
    335      1      4     35      0.3032          0.6804E+06
    336      1      4     36      0.2932          0.6804E+06
    337      1      4     37      0.2859          0.6804E+06
    338      1      4     38      0.2843          0.6804E+06
    339      1      4     39      0.2885          0.6804E+06
    340      1      4     40      0.2922          0.6804E+06
    341      1      4     41      0.2958          0.6804E+06
    342      1      4     42      0.2994          0.6804E+06
    343      1      4     43      0.3028          0.6804E+06
    344      1      4     44      0.3075          0.6804E+06
    345      1      4     45      0.3127          0.6804E+06
    346      1      4     46      0.3173          0.6804E+06
    347      1      4     47      0.3220          0.6804E+06
    348      1      4     48      0.3246          0.6804E+06
    349      1      4     49      0.3225          0.6804E+06
    350      1      4     50      0.3165          0.6804E+06
    351      1      4     51      0.3102          0.6804E+06
    352      1      4     52      0.3029          0.6804E+06
    353      1      4     53      0.2960          0.6804E+06
    354      1      4     54      0.2882          0.6804E+06
    355      1      4     55      0.2807          0.6804E+06
    356      1      4     56      0.2739          0.6804E+06
    357      1      4     57      0.2670          0.6804E+06
    358      1      4     58      0.2597          0.6804E+06
    359      1      4     59      0.2527          0.6804E+06
    360      1      4     60      0.2454          0.6804E+06
    361      1      4     61      0.2396          0.6804E+06
    362      1      4     62      0.2330          0.6804E+06
    363      1      4     63      0.2264          0.6804E+06
    364      1      4     64      0.2209          0.6804E+06
    365      1      4     65      0.2149          0.6804E+06
    366      1      4     66      0.2088          0.6804E+06
    367      1      4     67      0.2037          0.6804E+06
    368      1      4     68      0.1984          0.6804E+06
    369      1      4     69      0.1942          0.6804E+06
    370      1      4     70      0.1899          0.6804E+06
    371      1      4     71      0.1859          0.6804E+06
    372      1      4     72      0.1821          0.6804E+06
    373      1      4     73      0.1782          0.6804E+06
    374      1      4     74      0.1748          0.6804E+06
    375      1      4     75      0.1712          0.6804E+06
    376      1      4     76      0.1655          0.6804E+06
    377      1      4     77      0.1584          0.6804E+06
    378      1      4     78      0.1499          0.6804E+06
    379      1      4     79      0.1419          0.6804E+06
    380      1      4     80      0.1356          0.6804E+06
    381      1      4     81      0.1282          0.6804E+06
    382      1      4     82      0.1203          0.6804E+06
    383      1      4     83      0.1132          0.6804E+06
    384      1      4     84      0.1050          0.6804E+06
    385      1      4     85      0.9767E-01      0.6804E+06
    386      1      4     86      0.9029E-01      0.6804E+06
    387      1      4     87      0.8503E-01      0.6804E+06
    388      1      4     88      0.8086E-01      0.6804E+06
    389      1      4     89      0.7507E-01      0.6804E+06
    390      1      4     90      0.6880E-01      0.6804E+06
    391      1      4     91      0.6320E-01      0.6804E+06
    392      1      4     92      0.5551E-01      0.6804E+06
    393      1      4     93      0.4725E-01      0.6804E+06
    394      1      4     94      0.3691E-01      0.6804E+06
    395      1      4     95      0.2342E-01      0.6804E+06
    396      1      4     96      0.1036E-01      0.6804E+06
    397      1      4     97       0.000          0.6804E+06
    398      1      4     98     -0.4253E-01      0.6804E+06
    399      1      4     99     -0.8103E-01      0.6804E+06
    400      1      4    100     -0.1109          0.6804E+06
    401      1      5      1      0.4453          0.6804E+06
    402      1      5      2      0.4436          0.6804E+06
    403      1      5      3      0.4430          0.6804E+06
    404      1      5      4      0.4434          0.6804E+06
    405      1      5      5      0.4446          0.6804E+06
    406      1      5      6      0.4452          0.6804E+06
    407      1      5      7      0.4452          0.6804E+06
    408      1      5      8      0.4432          0.6804E+06
    409      1      5      9      0.4387          0.6804E+06
    410      1      5     10      0.4308          0.6804E+06
    411      1      5     11      0.4229          0.6804E+06
    412      1      5     12      0.4129          0.6804E+06
    413      1      5     13      0.4023          0.6804E+06
    414      1      5     14      0.3928          0.6804E+06
    415      1      5     15      0.3826          0.6804E+06
    416      1      5     16      0.3740          0.6804E+06
    417      1      5     17      0.3645          0.6804E+06
    418      1      5     18      0.3556          0.6804E+06
    419      1      5     19      0.3482          0.6804E+06
    420      1      5     20      0.3386          0.6804E+06
    421      1      5     21      0.3264          0.6804E+06
    422      1      5     22      0.3132          0.6804E+06
    423      1      5     23      0.2982          0.6804E+06
    424      1      5     24      0.2856          0.6804E+06
    425      1      5     25      0.2722          0.6804E+06
    426      1      5     26      0.2606          0.6804E+06
    427      1      5     27      0.2535          0.6804E+06
    428      1      5     28      0.2501          0.6804E+06
    429      1      5     29      0.2527          0.6804E+06
    430      1      5     30      0.2603          0.6804E+06
    431      1      5     31      0.2733          0.6804E+06
    432      1      5     32      0.2867          0.6804E+06
    433      1      5     33      0.2980          0.6804E+06
    434      1      5     34      0.2977          0.6804E+06
    435      1      5     35      0.2846          0.6804E+06
    436      1      5     36      0.2692          0.6804E+06
    437      1      5     37      0.2578          0.6804E+06
    438      1      5     38      0.2544          0.6804E+06
    439      1      5     39      0.2603          0.6804E+06
    440      1      5     40      0.2662          0.6804E+06
    441      1      5     41      0.2728          0.6804E+06
    442      1      5     42      0.2792          0.6804E+06
    443      1      5     43      0.2844          0.6804E+06
    444      1      5     44      0.2903          0.6804E+06
    445      1      5     45      0.2966          0.6804E+06
    446      1      5     46      0.3023          0.6804E+06
    447      1      5     47      0.3086          0.6804E+06
    448      1      5     48      0.3128          0.6804E+06
    449      1      5     49      0.3109          0.6804E+06
    450      1      5     50      0.3040          0.6804E+06
    451      1      5     51      0.2975          0.6804E+06
    452      1      5     52      0.2902          0.6804E+06
    453      1      5     53      0.2835          0.6804E+06
    454      1      5     54      0.2760          0.6804E+06
    455      1      5     55      0.2686          0.6804E+06
    456      1      5     56      0.2622          0.6804E+06
    457      1      5     57      0.2559          0.6804E+06
    458      1      5     58      0.2489          0.6804E+06
    459      1      5     59      0.2421          0.6804E+06
    460      1      5     60      0.2355          0.6804E+06
    461      1      5     61      0.2301          0.6804E+06
    462      1      5     62      0.2240          0.6804E+06
    463      1      5     63      0.2177          0.6804E+06
    464      1      5     64      0.2123          0.6804E+06
    465      1      5     65      0.2062          0.6804E+06
    466      1      5     66      0.1997          0.6804E+06
    467      1      5     67      0.1943          0.6804E+06
    468      1      5     68      0.1890          0.6804E+06
    469      1      5     69      0.1849          0.6804E+06
    470      1      5     70      0.1802          0.6804E+06
    471      1      5     71      0.1760          0.6804E+06
    472      1      5     72      0.1725          0.6804E+06
    473      1      5     73      0.1692          0.6804E+06
    474      1      5     74      0.1664          0.6804E+06
    475      1      5     75      0.1635          0.6804E+06
    476      1      5     76      0.1581          0.6804E+06
    477      1      5     77      0.1502          0.6804E+06
    478      1      5     78      0.1412          0.6804E+06
    479      1      5     79      0.1330          0.6804E+06
    480      1      5     80      0.1265          0.6804E+06
    481      1      5     81      0.1188          0.6804E+06
    482      1      5     82      0.1113          0.6804E+06
    483      1      5     83      0.1048          0.6804E+06
    484      1      5     84      0.9716E-01      0.6804E+06
    485      1      5     85      0.9037E-01      0.6804E+06
    486      1      5     86      0.8347E-01      0.6804E+06
    487      1      5     87      0.7887E-01      0.6804E+06
    488      1      5     88      0.7524E-01      0.6804E+06
    489      1      5     89      0.6925E-01      0.6804E+06
    490      1      5     90      0.6233E-01      0.6804E+06
    491      1      5     91      0.5570E-01      0.6804E+06
    492      1      5     92      0.4648E-01      0.6804E+06
    493      1      5     93      0.3665E-01      0.6804E+06
    494      1      5     94      0.2376E-01      0.6804E+06
    495      1      5     95      0.8694E-02      0.6804E+06
    496      1      5     96       0.000          0.6804E+06
    497      1      5     97     -0.4517E-01      0.6804E+06
    498      1      5     98     -0.7794E-01      0.6804E+06
    499      1      5     99     -0.1048          0.6804E+06
    500      1      5    100     -0.1273          0.6804E+06
    501      1      6      1      0.4592          0.6804E+06
    502      1      6      2      0.4575          0.6804E+06
    503      1      6      3      0.4568          0.6804E+06
    504      1      6      4      0.4569          0.6804E+06
    505      1      6      5      0.4576          0.6804E+06
    506      1      6      6      0.4576          0.6804E+06
    507      1      6      7      0.4564          0.6804E+06
    508      1      6      8      0.4529          0.6804E+06
    509      1      6      9      0.4471          0.6804E+06
    510      1      6     10      0.4379          0.6804E+06
    511      1      6     11      0.4288          0.6804E+06
    512      1      6     12      0.4175          0.6804E+06
    513      1      6     13      0.4057          0.6804E+06
    514      1      6     14      0.3954          0.6804E+06
    515      1      6     15      0.3848          0.6804E+06
    516      1      6     16      0.3764          0.6804E+06
    517      1      6     17      0.3675          0.6804E+06
    518      1      6     18      0.3596          0.6804E+06
    519      1      6     19      0.3529          0.6804E+06
    520      1      6     20      0.3437          0.6804E+06
    521      1      6     21      0.3313          0.6804E+06
    522      1      6     22      0.3174          0.6804E+06
    523      1      6     23      0.3012          0.6804E+06
    524      1      6     24      0.2873          0.6804E+06
    525      1      6     25      0.2721          0.6804E+06
    526      1      6     26      0.2579          0.6804E+06
    527      1      6     27      0.2468          0.6804E+06
    528      1      6     28      0.2375          0.6804E+06
    529      1      6     29      0.2358          0.6804E+06
    530      1      6     30      0.2433          0.6804E+06
    531      1      6     31      0.2552          0.6804E+06
    532      1      6     32      0.2661          0.6804E+06
    533      1      6     33      0.2736          0.6804E+06
    534      1      6     34      0.2703          0.6804E+06
    535      1      6     35      0.2579          0.6804E+06
    536      1      6     36      0.2425          0.6804E+06
    537      1      6     37      0.2308          0.6804E+06
    538      1      6     38      0.2276          0.6804E+06
    539      1      6     39      0.2336          0.6804E+06
    540      1      6     40      0.2408          0.6804E+06
    541      1      6     41      0.2494          0.6804E+06
    542      1      6     42      0.2578          0.6804E+06
    543      1      6     43      0.2642          0.6804E+06
    544      1      6     44      0.2710          0.6804E+06
    545      1      6     45      0.2777          0.6804E+06
    546      1      6     46      0.2835          0.6804E+06
    547      1      6     47      0.2896          0.6804E+06
    548      1      6     48      0.2936          0.6804E+06
    549      1      6     49      0.2927          0.6804E+06
    550      1      6     50      0.2871          0.6804E+06
    551      1      6     51      0.2816          0.6804E+06
    552      1      6     52      0.2751          0.6804E+06
    553      1      6     53      0.2692          0.6804E+06
    554      1      6     54      0.2623          0.6804E+06
    555      1      6     55      0.2554          0.6804E+06
    556      1      6     56      0.2499          0.6804E+06
    557      1      6     57      0.2436          0.6804E+06
    558      1      6     58      0.2368          0.6804E+06
    559      1      6     59      0.2306          0.6804E+06
    560      1      6     60      0.2248          0.6804E+06
    561      1      6     61      0.2198          0.6804E+06
    562      1      6     62      0.2142          0.6804E+06
    563      1      6     63      0.2083          0.6804E+06
    564      1      6     64      0.2030          0.6804E+06
    565      1      6     65      0.1966          0.6804E+06
    566      1      6     66      0.1899          0.6804E+06
    567      1      6     67      0.1844          0.6804E+06
    568      1      6     68      0.1791          0.6804E+06
    569      1      6     69      0.1746          0.6804E+06
    570      1      6     70      0.1696          0.6804E+06
    571      1      6     71      0.1653          0.6804E+06
    572      1      6     72      0.1621          0.6804E+06
    573      1      6     73      0.1586          0.6804E+06
    574      1      6     74      0.1553          0.6804E+06
    575      1      6     75      0.1518          0.6804E+06
    576      1      6     76      0.1462          0.6804E+06
    577      1      6     77      0.1390          0.6804E+06
    578      1      6     78      0.1307          0.6804E+06
    579      1      6     79      0.1224          0.6804E+06
    580      1      6     80      0.1156          0.6804E+06
    581      1      6     81      0.1086          0.6804E+06
    582      1      6     82      0.1021          0.6804E+06
    583      1      6     83      0.9642E-01      0.6804E+06
    584      1      6     84      0.8988E-01      0.6804E+06
    585      1      6     85      0.8392E-01      0.6804E+06
    586      1      6     86      0.7780E-01      0.6804E+06
    587      1      6     87      0.7317E-01      0.6804E+06
    588      1      6     88      0.6907E-01      0.6804E+06
    589      1      6     89      0.6223E-01      0.6804E+06
    590      1      6     90      0.5410E-01      0.6804E+06
    591      1      6     91      0.4560E-01      0.6804E+06
    592      1      6     92      0.3384E-01      0.6804E+06
    593      1      6     93      0.2190E-01      0.6804E+06
    594      1      6     94      0.7307E-02      0.6804E+06
    595      1      6     95       0.000          0.6804E+06
    596      1      6     96     -0.4403E-01      0.6804E+06
    597      1      6     97     -0.7934E-01      0.6804E+06
    598      1      6     98     -0.1005          0.6804E+06
    599      1      6     99     -0.1220          0.6804E+06
    600      1      6    100     -0.1407          0.6804E+06
    601      1      7      1      0.4692          0.6804E+06
    602      1      7      2      0.4678          0.6804E+06
    603      1      7      3      0.4673          0.6804E+06
    604      1      7      4      0.4673          0.6804E+06
    605      1      7      5      0.4678          0.6804E+06
    606      1      7      6      0.4675          0.6804E+06
    607      1      7      7      0.4654          0.6804E+06
    608      1      7      8      0.4607          0.6804E+06
    609      1      7      9      0.4535          0.6804E+06
    610      1      7     10      0.4428          0.6804E+06
    611      1      7     11      0.4324          0.6804E+06
    612      1      7     12      0.4200          0.6804E+06
    613      1      7     13      0.4075          0.6804E+06
    614      1      7     14      0.3967          0.6804E+06
    615      1      7     15      0.3853          0.6804E+06
    616      1      7     16      0.3763          0.6804E+06
    617      1      7     17      0.3674          0.6804E+06
    618      1      7     18      0.3599          0.6804E+06
    619      1      7     19      0.3536          0.6804E+06
    620      1      7     20      0.3446          0.6804E+06
    621      1      7     21      0.3322          0.6804E+06
    622      1      7     22      0.3185          0.6804E+06
    623      1      7     23      0.3020          0.6804E+06
    624      1      7     24      0.2876          0.6804E+06
    625      1      7     25      0.2716          0.6804E+06
    626      1      7     26      0.2556          0.6804E+06
    627      1      7     27      0.2417          0.6804E+06
    628      1      7     28      0.2279          0.6804E+06
    629      1      7     29      0.2224          0.6804E+06
    630      1      7     30      0.2290          0.6804E+06
    631      1      7     31      0.2387          0.6804E+06
    632      1      7     32      0.2458          0.6804E+06
    633      1      7     33      0.2490          0.6804E+06
    634      1      7     34      0.2435          0.6804E+06
    635      1      7     35      0.2324          0.6804E+06
    636      1      7     36      0.2182          0.6804E+06
    637      1      7     37      0.2076          0.6804E+06
    638      1      7     38      0.2055          0.6804E+06
    639      1      7     39      0.2120          0.6804E+06
    640      1      7     40      0.2202          0.6804E+06
    641      1      7     41      0.2302          0.6804E+06
    642      1      7     42      0.2396          0.6804E+06
    643      1      7     43      0.2465          0.6804E+06
    644      1      7     44      0.2532          0.6804E+06
    645      1      7     45      0.2596          0.6804E+06
    646      1      7     46      0.2646          0.6804E+06
    647      1      7     47      0.2694          0.6804E+06
    648      1      7     48      0.2724          0.6804E+06
    649      1      7     49      0.2725          0.6804E+06
    650      1      7     50      0.2693          0.6804E+06
    651      1      7     51      0.2655          0.6804E+06
    652      1      7     52      0.2603          0.6804E+06
    653      1      7     53      0.2552          0.6804E+06
    654      1      7     54      0.2492          0.6804E+06
    655      1      7     55      0.2433          0.6804E+06
    656      1      7     56      0.2387          0.6804E+06
    657      1      7     57      0.2320          0.6804E+06
    658      1      7     58      0.2252          0.6804E+06
    659      1      7     59      0.2201          0.6804E+06
    660      1      7     60      0.2147          0.6804E+06
    661      1      7     61      0.2102          0.6804E+06
    662      1      7     62      0.2050          0.6804E+06
    663      1      7     63      0.1995          0.6804E+06
    664      1      7     64      0.1944          0.6804E+06
    665      1      7     65      0.1876          0.6804E+06
    666      1      7     66      0.1807          0.6804E+06
    667      1      7     67      0.1752          0.6804E+06
    668      1      7     68      0.1696          0.6804E+06
    669      1      7     69      0.1648          0.6804E+06
    670      1      7     70      0.1599          0.6804E+06
    671      1      7     71      0.1556          0.6804E+06
    672      1      7     72      0.1519          0.6804E+06
    673      1      7     73      0.1477          0.6804E+06
    674      1      7     74      0.1436          0.6804E+06
    675      1      7     75      0.1396          0.6804E+06
    676      1      7     76      0.1340          0.6804E+06
    677      1      7     77      0.1278          0.6804E+06
    678      1      7     78      0.1201          0.6804E+06
    679      1      7     79      0.1119          0.6804E+06
    680      1      7     80      0.1052          0.6804E+06
    681      1      7     81      0.9924E-01      0.6804E+06
    682      1      7     82      0.9380E-01      0.6804E+06
    683      1      7     83      0.8900E-01      0.6804E+06
    684      1      7     84      0.8319E-01      0.6804E+06
    685      1      7     85      0.7770E-01      0.6804E+06
    686      1      7     86      0.7259E-01      0.6804E+06
    687      1      7     87      0.6745E-01      0.6804E+06
    688      1      7     88      0.6189E-01      0.6804E+06
    689      1      7     89      0.5383E-01      0.6804E+06
    690      1      7     90      0.4454E-01      0.6804E+06
    691      1      7     91      0.3432E-01      0.6804E+06
    692      1      7     92      0.1993E-01      0.6804E+06
    693      1      7     93      0.6895E-02      0.6804E+06
    694      1      7     94       0.000          0.6804E+06
    695      1      7     95       0.000          0.6804E+06
    696      1      7     96     -0.7501E-01      0.6804E+06
    697      1      7     97     -0.9975E-01      0.6804E+06
    698      1      7     98     -0.1192          0.6804E+06
    699      1      7     99     -0.1401          0.6804E+06
    700      1      7    100     -0.1727          0.6804E+06
    701      1      8      1      0.4782          0.6804E+06
    702      1      8      2      0.4776          0.6804E+06
    703      1      8      3      0.4773          0.6804E+06
    704      1      8      4      0.4775          0.6804E+06
    705      1      8      5      0.4779          0.6804E+06
    706      1      8      6      0.4775          0.6804E+06
    707      1      8      7      0.4750          0.6804E+06
    708      1      8      8      0.4691          0.6804E+06
    709      1      8      9      0.4599          0.6804E+06
    710      1      8     10      0.4463          0.6804E+06
    711      1      8     11      0.4339          0.6804E+06
    712      1      8     12      0.4201          0.6804E+06
    713      1      8     13      0.4072          0.6804E+06
    714      1      8     14      0.3957          0.6804E+06
    715      1      8     15      0.3828          0.6804E+06
    716      1      8     16      0.3726          0.6804E+06
    717      1      8     17      0.3634          0.6804E+06
    718      1      8     18      0.3565          0.6804E+06
    719      1      8     19      0.3515          0.6804E+06
    720      1      8     20      0.3437          0.6804E+06
    721      1      8     21      0.3314          0.6804E+06
    722      1      8     22      0.3171          0.6804E+06
    723      1      8     23      0.3002          0.6804E+06
    724      1      8     24      0.2859          0.6804E+06
    725      1      8     25      0.2702          0.6804E+06
    726      1      8     26      0.2537          0.6804E+06
    727      1      8     27      0.2385          0.6804E+06
    728      1      8     28      0.2238          0.6804E+06
    729      1      8     29      0.2161          0.6804E+06
    730      1      8     30      0.2177          0.6804E+06
    731      1      8     31      0.2223          0.6804E+06
    732      1      8     32      0.2251          0.6804E+06
    733      1      8     33      0.2242          0.6804E+06
    734      1      8     34      0.2165          0.6804E+06
    735      1      8     35      0.2050          0.6804E+06
    736      1      8     36      0.1907          0.6804E+06
    737      1      8     37      0.1806          0.6804E+06
    738      1      8     38      0.1804          0.6804E+06
    739      1      8     39      0.1894          0.6804E+06
    740      1      8     40      0.1993          0.6804E+06
    741      1      8     41      0.2107          0.6804E+06
    742      1      8     42      0.2206          0.6804E+06
    743      1      8     43      0.2273          0.6804E+06
    744      1      8     44      0.2332          0.6804E+06
    745      1      8     45      0.2384          0.6804E+06
    746      1      8     46      0.2423          0.6804E+06
    747      1      8     47      0.2454          0.6804E+06
    748      1      8     48      0.2477          0.6804E+06
    749      1      8     49      0.2489          0.6804E+06
    750      1      8     50      0.2478          0.6804E+06
    751      1      8     51      0.2458          0.6804E+06
    752      1      8     52      0.2425          0.6804E+06
    753      1      8     53      0.2386          0.6804E+06
    754      1      8     54      0.2335          0.6804E+06
    755      1      8     55      0.2283          0.6804E+06
    756      1      8     56      0.2247          0.6804E+06
    757      1      8     57      0.2183          0.6804E+06
    758      1      8     58      0.2117          0.6804E+06
    759      1      8     59      0.2076          0.6804E+06
    760      1      8     60      0.2026          0.6804E+06
    761      1      8     61      0.1985          0.6804E+06
    762      1      8     62      0.1937          0.6804E+06
    763      1      8     63      0.1886          0.6804E+06
    764      1      8     64      0.1836          0.6804E+06
    765      1      8     65      0.1765          0.6804E+06
    766      1      8     66      0.1693          0.6804E+06
    767      1      8     67      0.1637          0.6804E+06
    768      1      8     68      0.1579          0.6804E+06
    769      1      8     69      0.1530          0.6804E+06
    770      1      8     70      0.1482          0.6804E+06
    771      1      8     71      0.1438          0.6804E+06
    772      1      8     72      0.1393          0.6804E+06
    773      1      8     73      0.1341          0.6804E+06
    774      1      8     74      0.1293          0.6804E+06
    775      1      8     75      0.1250          0.6804E+06
    776      1      8     76      0.1197          0.6804E+06
    777      1      8     77      0.1147          0.6804E+06
    778      1      8     78      0.1079          0.6804E+06
    779      1      8     79      0.1000          0.6804E+06
    780      1      8     80      0.9346E-01      0.6804E+06
    781      1      8     81      0.8885E-01      0.6804E+06
    782      1      8     82      0.8443E-01      0.6804E+06
    783      1      8     83      0.8025E-01      0.6804E+06
    784      1      8     84      0.7495E-01      0.6804E+06
    785      1      8     85      0.6975E-01      0.6804E+06
    786      1      8     86      0.6418E-01      0.6804E+06
    787      1      8     87      0.5803E-01      0.6804E+06
    788      1      8     88      0.5140E-01      0.6804E+06
    789      1      8     89      0.4222E-01      0.6804E+06
    790      1      8     90      0.3136E-01      0.6804E+06
    791      1      8     91      0.1844E-01      0.6804E+06
    792      1      8     92      0.1865E-02      0.6804E+06
    793      1      8     93       0.000          0.6804E+06
    794      1      8     94       0.000          0.6804E+06
    795      1      8     95     -0.8038E-01      0.6804E+06
    796      1      8     96     -0.1007          0.6804E+06
    797      1      8     97     -0.1204          0.6804E+06
    798      1      8     98     -0.1363          0.6804E+06
    799      1      8     99     -0.1683          0.6804E+06
    800      1      8    100     -0.2581          0.6804E+06
    801      1      9      1      0.4846          0.6804E+06
    802      1      9      2      0.4845          0.6804E+06
    803      1      9      3      0.4845          0.6804E+06
    804      1      9      4      0.4848          0.6804E+06
    805      1      9      5      0.4851          0.6804E+06
    806      1      9      6      0.4846          0.6804E+06
    807      1      9      7      0.4824          0.6804E+06
    808      1      9      8      0.4759          0.6804E+06
    809      1      9      9      0.4639          0.6804E+06
    810      1      9     10      0.4469          0.6804E+06
    811      1      9     11      0.4321          0.6804E+06
    812      1      9     12      0.4168          0.6804E+06
    813      1      9     13      0.4038          0.6804E+06
    814      1      9     14      0.3913          0.6804E+06
    815      1      9     15      0.3767          0.6804E+06
    816      1      9     16      0.3652          0.6804E+06
    817      1      9     17      0.3556          0.6804E+06
    818      1      9     18      0.3493          0.6804E+06
    819      1      9     19      0.3456          0.6804E+06
    820      1      9     20      0.3394          0.6804E+06
    821      1      9     21      0.3271          0.6804E+06
    822      1      9     22      0.3120          0.6804E+06
    823      1      9     23      0.2950          0.6804E+06
    824      1      9     24      0.2811          0.6804E+06
    825      1      9     25      0.2665          0.6804E+06
    826      1      9     26      0.2508          0.6804E+06
    827      1      9     27      0.2357          0.6804E+06
    828      1      9     28      0.2211          0.6804E+06
    829      1      9     29      0.2124          0.6804E+06
    830      1      9     30      0.2106          0.6804E+06
    831      1      9     31      0.2111          0.6804E+06
    832      1      9     32      0.2110          0.6804E+06
    833      1      9     33      0.2077          0.6804E+06
    834      1      9     34      0.1986          0.6804E+06
    835      1      9     35      0.1858          0.6804E+06
    836      1      9     36      0.1688          0.6804E+06
    837      1      9     37      0.1574          0.6804E+06
    838      1      9     38      0.1597          0.6804E+06
    839      1      9     39      0.1728          0.6804E+06
    840      1      9     40      0.1848          0.6804E+06
    841      1      9     41      0.1968          0.6804E+06
    842      1      9     42      0.2062          0.6804E+06
    843      1      9     43      0.2122          0.6804E+06
    844      1      9     44      0.2168          0.6804E+06
    845      1      9     45      0.2205          0.6804E+06
    846      1      9     46      0.2230          0.6804E+06
    847      1      9     47      0.2249          0.6804E+06
    848      1      9     48      0.2270          0.6804E+06
    849      1      9     49      0.2288          0.6804E+06
    850      1      9     50      0.2291          0.6804E+06
    851      1      9     51      0.2283          0.6804E+06
    852      1      9     52      0.2264          0.6804E+06
    853      1      9     53      0.2234          0.6804E+06
    854      1      9     54      0.2192          0.6804E+06
    855      1      9     55      0.2146          0.6804E+06
    856      1      9     56      0.2109          0.6804E+06
    857      1      9     57      0.2055          0.6804E+06
    858      1      9     58      0.2002          0.6804E+06
    859      1      9     59      0.1961          0.6804E+06
    860      1      9     60      0.1912          0.6804E+06
    861      1      9     61      0.1874          0.6804E+06
    862      1      9     62      0.1830          0.6804E+06
    863      1      9     63      0.1778          0.6804E+06
    864      1      9     64      0.1726          0.6804E+06
    865      1      9     65      0.1657          0.6804E+06
    866      1      9     66      0.1583          0.6804E+06
    867      1      9     67      0.1525          0.6804E+06
    868      1      9     68      0.1473          0.6804E+06
    869      1      9     69      0.1425          0.6804E+06
    870      1      9     70      0.1372          0.6804E+06
    871      1      9     71      0.1322          0.6804E+06
    872      1      9     72      0.1275          0.6804E+06
    873      1      9     73      0.1217          0.6804E+06
    874      1      9     74      0.1164          0.6804E+06
    875      1      9     75      0.1121          0.6804E+06
    876      1      9     76      0.1077          0.6804E+06
    877      1      9     77      0.1036          0.6804E+06
    878      1      9     78      0.9777E-01      0.6804E+06
    879      1      9     79      0.9066E-01      0.6804E+06
    880      1      9     80      0.8461E-01      0.6804E+06
    881      1      9     81      0.8050E-01      0.6804E+06
    882      1      9     82      0.7650E-01      0.6804E+06
    883      1      9     83      0.7250E-01      0.6804E+06
    884      1      9     84      0.6717E-01      0.6804E+06
    885      1      9     85      0.6218E-01      0.6804E+06
    886      1      9     86      0.5563E-01      0.6804E+06
    887      1      9     87      0.4796E-01      0.6804E+06
    888      1      9     88      0.3998E-01      0.6804E+06
    889      1      9     89      0.2944E-01      0.6804E+06
    890      1      9     90      0.1802E-01      0.6804E+06
    891      1      9     91      0.3275E-02      0.6804E+06
    892      1      9     92       0.000          0.6804E+06
    893      1      9     93       0.000          0.6804E+06
    894      1      9     94     -0.7698E-01      0.6804E+06
    895      1      9     95     -0.1038          0.6804E+06
    896      1      9     96     -0.1242          0.6804E+06
    897      1      9     97     -0.1357          0.6804E+06
    898      1      9     98     -0.1550          0.6804E+06
    899      1      9     99     -0.2520          0.6804E+06
    900      1      9    100     -0.2207          0.6804E+06
    901      1     10      1      0.4910          0.6804E+06
    902      1     10      2      0.4909          0.6804E+06
    903      1     10      3      0.4909          0.6804E+06
    904      1     10      4      0.4908          0.6804E+06
    905      1     10      5      0.4905          0.6804E+06
    906      1     10      6      0.4898          0.6804E+06
    907      1     10      7      0.4881          0.6804E+06
    908      1     10      8      0.4815          0.6804E+06
    909      1     10      9      0.4647          0.6804E+06
    910      1     10     10      0.4426          0.6804E+06
    911      1     10     11      0.4242          0.6804E+06
    912      1     10     12      0.4065          0.6804E+06
    913      1     10     13      0.3934          0.6804E+06
    914      1     10     14      0.3794          0.6804E+06
    915      1     10     15      0.3629          0.6804E+06
    916      1     10     16      0.3505          0.6804E+06
    917      1     10     17      0.3411          0.6804E+06
    918      1     10     18      0.3353          0.6804E+06
    919      1     10     19      0.3326          0.6804E+06
    920      1     10     20      0.3275          0.6804E+06
    921      1     10     21      0.3154          0.6804E+06
    922      1     10     22      0.3006          0.6804E+06
    923      1     10     23      0.2842          0.6804E+06
    924      1     10     24      0.2709          0.6804E+06
    925      1     10     25      0.2572          0.6804E+06
    926      1     10     26      0.2427          0.6804E+06
    927      1     10     27      0.2289          0.6804E+06
    928      1     10     28      0.2155          0.6804E+06
    929      1     10     29      0.2067          0.6804E+06
    930      1     10     30      0.2028          0.6804E+06
    931      1     10     31      0.2007          0.6804E+06
    932      1     10     32      0.1990          0.6804E+06
    933      1     10     33      0.1952          0.6804E+06
    934      1     10     34      0.1867          0.6804E+06
    935      1     10     35      0.1746          0.6804E+06
    936      1     10     36      0.1550          0.6804E+06
    937      1     10     37      0.1413          0.6804E+06
    938      1     10     38      0.1471          0.6804E+06
    939      1     10     39      0.1633          0.6804E+06
    940      1     10     40      0.1758          0.6804E+06
    941      1     10     41      0.1863          0.6804E+06
    942      1     10     42      0.1935          0.6804E+06
    943      1     10     43      0.1976          0.6804E+06
    944      1     10     44      0.2002          0.6804E+06
    945      1     10     45      0.2017          0.6804E+06
    946      1     10     46      0.2024          0.6804E+06
    947      1     10     47      0.2028          0.6804E+06
    948      1     10     48      0.2048          0.6804E+06
    949      1     10     49      0.2073          0.6804E+06
    950      1     10     50      0.2087          0.6804E+06
    951      1     10     51      0.2090          0.6804E+06
    952      1     10     52      0.2079          0.6804E+06
    953      1     10     53      0.2058          0.6804E+06
    954      1     10     54      0.2026          0.6804E+06
    955      1     10     55      0.1986          0.6804E+06
    956      1     10     56      0.1948          0.6804E+06
    957      1     10     57      0.1904          0.6804E+06
    958      1     10     58      0.1862          0.6804E+06
    959      1     10     59      0.1821          0.6804E+06
    960      1     10     60      0.1775          0.6804E+06
    961      1     10     61      0.1740          0.6804E+06
    962      1     10     62      0.1699          0.6804E+06
    963      1     10     63      0.1649          0.6804E+06
    964      1     10     64      0.1595          0.6804E+06
    965      1     10     65      0.1526          0.6804E+06
    966      1     10     66      0.1451          0.6804E+06
    967      1     10     67      0.1389          0.6804E+06
    968      1     10     68      0.1335          0.6804E+06
    969      1     10     69      0.1289          0.6804E+06
    970      1     10     70      0.1239          0.6804E+06
    971      1     10     71      0.1190          0.6804E+06
    972      1     10     72      0.1141          0.6804E+06
    973      1     10     73      0.1077          0.6804E+06
    974      1     10     74      0.1018          0.6804E+06
    975      1     10     75      0.9769E-01      0.6804E+06
    976      1     10     76      0.9470E-01      0.6804E+06
    977      1     10     77      0.9187E-01      0.6804E+06
    978      1     10     78      0.8740E-01      0.6804E+06
    979      1     10     79      0.8168E-01      0.6804E+06
    980      1     10     80      0.7663E-01      0.6804E+06
    981      1     10     81      0.7193E-01      0.6804E+06
    982      1     10     82      0.6758E-01      0.6804E+06
    983      1     10     83      0.6340E-01      0.6804E+06
    984      1     10     84      0.5770E-01      0.6804E+06
    985      1     10     85      0.5233E-01      0.6804E+06
    986      1     10     86      0.4414E-01      0.6804E+06
    987      1     10     87      0.3412E-01      0.6804E+06
    988      1     10     88      0.2380E-01      0.6804E+06
    989      1     10     89      0.1137E-01      0.6804E+06
    990      1     10     90       0.000          0.6804E+06
    991      1     10     91       0.000          0.6804E+06
    992      1     10     92       0.000          0.6804E+06
    993      1     10     93     -0.8005E-01      0.6804E+06
    994      1     10     94     -0.1037          0.6804E+06
    995      1     10     95     -0.1303          0.6804E+06
    996      1     10     96     -0.1401          0.6804E+06
    997      1     10     97     -0.1600          0.6804E+06
    998      1     10     98     -0.2419          0.6804E+06
    999      1     10     99     -0.2095          0.6804E+06
   1000      1     10    100     -0.1550          0.6804E+06
   1001      1     11      1      0.4964          0.6804E+06
   1002      1     11      2      0.4960          0.6804E+06
   1003      1     11      3      0.4955          0.6804E+06
   1004      1     11      4      0.4946          0.6804E+06
   1005      1     11      5      0.4931          0.6804E+06
   1006      1     11      6      0.4907          0.6804E+06
   1007      1     11      7      0.4860          0.6804E+06
   1008      1     11      8      0.4755          0.6804E+06
   1009      1     11      9      0.4569          0.6804E+06
   1010      1     11     10      0.4316          0.6804E+06
   1011      1     11     11      0.4092          0.6804E+06
   1012      1     11     12      0.3863          0.6804E+06
   1013      1     11     13      0.3678          0.6804E+06
   1014      1     11     14      0.3528          0.6804E+06
   1015      1     11     15      0.3383          0.6804E+06
   1016      1     11     16      0.3288          0.6804E+06
   1017      1     11     17      0.3209          0.6804E+06
   1018      1     11     18      0.3155          0.6804E+06
   1019      1     11     19      0.3116          0.6804E+06
   1020      1     11     20      0.3054          0.6804E+06
   1021      1     11     21      0.2945          0.6804E+06
   1022      1     11     22      0.2823          0.6804E+06
   1023      1     11     23      0.2679          0.6804E+06
   1024      1     11     24      0.2554          0.6804E+06
   1025      1     11     25      0.2421          0.6804E+06
   1026      1     11     26      0.2289          0.6804E+06
   1027      1     11     27      0.2175          0.6804E+06
   1028      1     11     28      0.2064          0.6804E+06
   1029      1     11     29      0.1986          0.6804E+06
   1030      1     11     30      0.1943          0.6804E+06
   1031      1     11     31      0.1917          0.6804E+06
   1032      1     11     32      0.1902          0.6804E+06
   1033      1     11     33      0.1880          0.6804E+06
   1034      1     11     34      0.1833          0.6804E+06
   1035      1     11     35      0.1763          0.6804E+06
   1036      1     11     36      0.1644          0.6804E+06
   1037      1     11     37      0.1563          0.6804E+06
   1038      1     11     38      0.1601          0.6804E+06
   1039      1     11     39      0.1693          0.6804E+06
   1040      1     11     40      0.1763          0.6804E+06
   1041      1     11     41      0.1815          0.6804E+06
   1042      1     11     42      0.1845          0.6804E+06
   1043      1     11     43      0.1858          0.6804E+06
   1044      1     11     44      0.1860          0.6804E+06
   1045      1     11     45      0.1852          0.6804E+06
   1046      1     11     46      0.1835          0.6804E+06
   1047      1     11     47      0.1819          0.6804E+06
   1048      1     11     48      0.1839          0.6804E+06
   1049      1     11     49      0.1876          0.6804E+06
   1050      1     11     50      0.1900          0.6804E+06
   1051      1     11     51      0.1909          0.6804E+06
   1052      1     11     52      0.1907          0.6804E+06
   1053      1     11     53      0.1891          0.6804E+06
   1054      1     11     54      0.1861          0.6804E+06
   1055      1     11     55      0.1827          0.6804E+06
   1056      1     11     56      0.1796          0.6804E+06
   1057      1     11     57      0.1755          0.6804E+06
   1058      1     11     58      0.1713          0.6804E+06
   1059      1     11     59      0.1677          0.6804E+06
   1060      1     11     60      0.1634          0.6804E+06
   1061      1     11     61      0.1600          0.6804E+06
   1062      1     11     62      0.1560          0.6804E+06
   1063      1     11     63      0.1514          0.6804E+06
   1064      1     11     64      0.1463          0.6804E+06
   1065      1     11     65      0.1389          0.6804E+06
   1066      1     11     66      0.1304          0.6804E+06
   1067      1     11     67      0.1237          0.6804E+06
   1068      1     11     68      0.1186          0.6804E+06
   1069      1     11     69      0.1149          0.6804E+06
   1070      1     11     70      0.1109          0.6804E+06
   1071      1     11     71      0.1065          0.6804E+06
   1072      1     11     72      0.1019          0.6804E+06
   1073      1     11     73      0.9568E-01      0.6804E+06
   1074      1     11     74      0.9004E-01      0.6804E+06
   1075      1     11     75      0.8625E-01      0.6804E+06
   1076      1     11     76      0.8396E-01      0.6804E+06
   1077      1     11     77      0.8147E-01      0.6804E+06
   1078      1     11     78      0.7762E-01      0.6804E+06
   1079      1     11     79      0.7270E-01      0.6804E+06
   1080      1     11     80      0.6809E-01      0.6804E+06
   1081      1     11     81      0.6301E-01      0.6804E+06
   1082      1     11     82      0.5786E-01      0.6804E+06
   1083      1     11     83      0.5327E-01      0.6804E+06
   1084      1     11     84      0.4735E-01      0.6804E+06
   1085      1     11     85      0.3999E-01      0.6804E+06
   1086      1     11     86      0.2950E-01      0.6804E+06
   1087      1     11     87      0.1704E-01      0.6804E+06
   1088      1     11     88      0.5363E-02      0.6804E+06
   1089      1     11     89       0.000          0.6804E+06
   1090      1     11     90       0.000          0.6804E+06
   1091      1     11     91     -0.6310E-01      0.6804E+06
   1092      1     11     92     -0.8652E-01      0.6804E+06
   1093      1     11     93     -0.1029          0.6804E+06
   1094      1     11     94     -0.1237          0.6804E+06
   1095      1     11     95     -0.1383          0.6804E+06
   1096      1     11     96     -0.1603          0.6804E+06
   1097      1     11     97     -0.2289          0.6804E+06
   1098      1     11     98     -0.2050          0.6804E+06
   1099      1     11     99     -0.1569          0.6804E+06
   1100      1     11    100     -0.1391          0.6804E+06
   1101      1     12      1      0.5005          0.6804E+06
   1102      1     12      2      0.4995          0.6804E+06
   1103      1     12      3      0.4984          0.6804E+06
   1104      1     12      4      0.4965          0.6804E+06
   1105      1     12      5      0.4937          0.6804E+06
   1106      1     12      6      0.4895          0.6804E+06
   1107      1     12      7      0.4814          0.6804E+06
   1108      1     12      8      0.4671          0.6804E+06
   1109      1     12      9      0.4475          0.6804E+06
   1110      1     12     10      0.4195          0.6804E+06
   1111      1     12     11      0.3936          0.6804E+06
   1112      1     12     12      0.3655          0.6804E+06
   1113      1     12     13      0.3402          0.6804E+06
   1114      1     12     14      0.3244          0.6804E+06
   1115      1     12     15      0.3130          0.6804E+06
   1116      1     12     16      0.3076          0.6804E+06
   1117      1     12     17      0.3017          0.6804E+06
   1118      1     12     18      0.2963          0.6804E+06
   1119      1     12     19      0.2915          0.6804E+06
   1120      1     12     20      0.2843          0.6804E+06
   1121      1     12     21      0.2741          0.6804E+06
   1122      1     12     22      0.2635          0.6804E+06
   1123      1     12     23      0.2507          0.6804E+06
   1124      1     12     24      0.2391          0.6804E+06
   1125      1     12     25      0.2265          0.6804E+06
   1126      1     12     26      0.2146          0.6804E+06
   1127      1     12     27      0.2049          0.6804E+06
   1128      1     12     28      0.1957          0.6804E+06
   1129      1     12     29      0.1895          0.6804E+06
   1130      1     12     30      0.1857          0.6804E+06
   1131      1     12     31      0.1838          0.6804E+06
   1132      1     12     32      0.1838          0.6804E+06
   1133      1     12     33      0.1843          0.6804E+06
   1134      1     12     34      0.1846          0.6804E+06
   1135      1     12     35      0.1850          0.6804E+06
   1136      1     12     36      0.1852          0.6804E+06
   1137      1     12     37      0.1857          0.6804E+06
   1138      1     12     38      0.1843          0.6804E+06
   1139      1     12     39      0.1823          0.6804E+06
   1140      1     12     40      0.1810          0.6804E+06
   1141      1     12     41      0.1797          0.6804E+06
   1142      1     12     42      0.1785          0.6804E+06
   1143      1     12     43      0.1776          0.6804E+06
   1144      1     12     44      0.1758          0.6804E+06
   1145      1     12     45      0.1730          0.6804E+06
   1146      1     12     46      0.1701          0.6804E+06
   1147      1     12     47      0.1677          0.6804E+06
   1148      1     12     48      0.1694          0.6804E+06
   1149      1     12     49      0.1730          0.6804E+06
   1150      1     12     50      0.1752          0.6804E+06
   1151      1     12     51      0.1764          0.6804E+06
   1152      1     12     52      0.1764          0.6804E+06
   1153      1     12     53      0.1743          0.6804E+06
   1154      1     12     54      0.1706          0.6804E+06
   1155      1     12     55      0.1693          0.6804E+06
   1156      1     12     56      0.1667          0.6804E+06
   1157      1     12     57      0.1628          0.6804E+06
   1158      1     12     58      0.1588          0.6804E+06
   1159      1     12     59      0.1551          0.6804E+06
   1160      1     12     60      0.1509          0.6804E+06
   1161      1     12     61      0.1473          0.6804E+06
   1162      1     12     62      0.1432          0.6804E+06
   1163      1     12     63      0.1389          0.6804E+06
   1164      1     12     64      0.1344          0.6804E+06
   1165      1     12     65      0.1265          0.6804E+06
   1166      1     12     66      0.1167          0.6804E+06
   1167      1     12     67      0.1092          0.6804E+06
   1168      1     12     68      0.1054          0.6804E+06
   1169      1     12     69      0.1031          0.6804E+06
   1170      1     12     70      0.1002          0.6804E+06
   1171      1     12     71      0.9652E-01      0.6804E+06
   1172      1     12     72      0.9234E-01      0.6804E+06
   1173      1     12     73      0.8685E-01      0.6804E+06
   1174      1     12     74      0.8189E-01      0.6804E+06
   1175      1     12     75      0.7844E-01      0.6804E+06
   1176      1     12     76      0.7588E-01      0.6804E+06
   1177      1     12     77      0.7315E-01      0.6804E+06
   1178      1     12     78      0.6915E-01      0.6804E+06
   1179      1     12     79      0.6400E-01      0.6804E+06
   1180      1     12     80      0.5893E-01      0.6804E+06
   1181      1     12     81      0.5325E-01      0.6804E+06
   1182      1     12     82      0.4783E-01      0.6804E+06
   1183      1     12     83      0.4289E-01      0.6804E+06
   1184      1     12     84      0.3546E-01      0.6804E+06
   1185      1     12     85      0.2601E-01      0.6804E+06
   1186      1     12     86      0.1418E-01      0.6804E+06
   1187      1     12     87      0.9250E-03      0.6804E+06
   1188      1     12     88       0.000          0.6804E+06
   1189      1     12     89       0.000          0.6804E+06
   1190      1     12     90     -0.7046E-01      0.6804E+06
   1191      1     12     91     -0.8687E-01      0.6804E+06
   1192      1     12     92     -0.1042          0.6804E+06
   1193      1     12     93     -0.1183          0.6804E+06
   1194      1     12     94     -0.1342          0.6804E+06
   1195      1     12     95     -0.1562          0.6804E+06
   1196      1     12     96     -0.2266          0.6804E+06
   1197      1     12     97     -0.1988          0.6804E+06
   1198      1     12     98     -0.1559          0.6804E+06
   1199      1     12     99     -0.1234          0.6804E+06
   1200      1     12    100     -0.1214          0.6804E+06
   1201      1     13      1      0.5044          0.6804E+06
   1202      1     13      2      0.5024          0.6804E+06
   1203      1     13      3      0.5004          0.6804E+06
   1204      1     13      4      0.4974          0.6804E+06
   1205      1     13      5      0.4931          0.6804E+06
   1206      1     13      6      0.4871          0.6804E+06
   1207      1     13      7      0.4765          0.6804E+06
   1208      1     13      8      0.4596          0.6804E+06
   1209      1     13      9      0.4382          0.6804E+06
   1210      1     13     10      0.4073          0.6804E+06
   1211      1     13     11      0.3781          0.6804E+06
   1212      1     13     12      0.3455          0.6804E+06
   1213      1     13     13      0.3149          0.6804E+06
   1214      1     13     14      0.2984          0.6804E+06
   1215      1     13     15      0.2888          0.6804E+06
   1216      1     13     16      0.2856          0.6804E+06
   1217      1     13     17      0.2810          0.6804E+06
   1218      1     13     18      0.2750          0.6804E+06
   1219      1     13     19      0.2690          0.6804E+06
   1220      1     13     20      0.2607          0.6804E+06
   1221      1     13     21      0.2508          0.6804E+06
   1222      1     13     22      0.2413          0.6804E+06
   1223      1     13     23      0.2297          0.6804E+06
   1224      1     13     24      0.2189          0.6804E+06
   1225      1     13     25      0.2072          0.6804E+06
   1226      1     13     26      0.1967          0.6804E+06
   1227      1     13     27      0.1884          0.6804E+06
   1228      1     13     28      0.1810          0.6804E+06
   1229      1     13     29      0.1766          0.6804E+06
   1230      1     13     30      0.1743          0.6804E+06
   1231      1     13     31      0.1738          0.6804E+06
   1232      1     13     32      0.1755          0.6804E+06
   1233      1     13     33      0.1799          0.6804E+06
   1234      1     13     34      0.1864          0.6804E+06
   1235      1     13     35      0.1954          0.6804E+06
   1236      1     13     36      0.2086          0.6804E+06
   1237      1     13     37      0.2184          0.6804E+06
   1238      1     13     38      0.2114          0.6804E+06
   1239      1     13     39      0.1974          0.6804E+06
   1240      1     13     40      0.1865          0.6804E+06
   1241      1     13     41      0.1780          0.6804E+06
   1242      1     13     42      0.1723          0.6804E+06
   1243      1     13     43      0.1693          0.6804E+06
   1244      1     13     44      0.1655          0.6804E+06
   1245      1     13     45      0.1614          0.6804E+06
   1246      1     13     46      0.1585          0.6804E+06
   1247      1     13     47      0.1564          0.6804E+06
   1248      1     13     48      0.1572          0.6804E+06
   1249      1     13     49      0.1594          0.6804E+06
   1250      1     13     50      0.1607          0.6804E+06
   1251      1     13     51      0.1615          0.6804E+06
   1252      1     13     52      0.1604          0.6804E+06
   1253      1     13     53      0.1583          0.6804E+06
   1254      1     13     54      0.1563          0.6804E+06
   1255      1     13     55      0.1549          0.6804E+06
   1256      1     13     56      0.1521          0.6804E+06
   1257      1     13     57      0.1480          0.6804E+06
   1258      1     13     58      0.1438          0.6804E+06
   1259      1     13     59      0.1399          0.6804E+06
   1260      1     13     60      0.1354          0.6804E+06
   1261      1     13     61      0.1316          0.6804E+06
   1262      1     13     62      0.1272          0.6804E+06
   1263      1     13     63      0.1240          0.6804E+06
   1264      1     13     64      0.1198          0.6804E+06
   1265      1     13     65      0.1122          0.6804E+06
   1266      1     13     66      0.1019          0.6804E+06
   1267      1     13     67      0.9317E-01      0.6804E+06
   1268      1     13     68      0.9147E-01      0.6804E+06
   1269      1     13     69      0.9093E-01      0.6804E+06
   1270      1     13     70      0.8931E-01      0.6804E+06
   1271      1     13     71      0.8636E-01      0.6804E+06
   1272      1     13     72      0.8272E-01      0.6804E+06
   1273      1     13     73      0.7806E-01      0.6804E+06
   1274      1     13     74      0.7389E-01      0.6804E+06
   1275      1     13     75      0.7073E-01      0.6804E+06
   1276      1     13     76      0.6702E-01      0.6804E+06
   1277      1     13     77      0.6354E-01      0.6804E+06
   1278      1     13     78      0.5881E-01      0.6804E+06
   1279      1     13     79      0.5279E-01      0.6804E+06
   1280      1     13     80      0.4697E-01      0.6804E+06
   1281      1     13     81      0.3993E-01      0.6804E+06
   1282      1     13     82      0.3310E-01      0.6804E+06
   1283      1     13     83      0.2724E-01      0.6804E+06
   1284      1     13     84      0.1894E-01      0.6804E+06
   1285      1     13     85      0.7591E-02      0.6804E+06
   1286      1     13     86       0.000          0.6804E+06
   1287      1     13     87       0.000          0.6804E+06
   1288      1     13     88     -0.5507E-01      0.6804E+06
   1289      1     13     89     -0.7767E-01      0.6804E+06
   1290      1     13     90     -0.9604E-01      0.6804E+06
   1291      1     13     91     -0.1095          0.6804E+06
   1292      1     13     92     -0.1211          0.6804E+06
   1293      1     13     93     -0.1322          0.6804E+06
   1294      1     13     94     -0.1323          0.6804E+06
   1295      1     13     95     -0.1705          0.6804E+06
   1296      1     13     96     -0.2359          0.6804E+06
   1297      1     13     97     -0.1808          0.6804E+06
   1298      1     13     98     -0.1415          0.6804E+06
   1299      1     13     99     -0.1149          0.6804E+06
   1300      1     13    100     -0.1151          0.6804E+06
   1301      1     14      1      0.5075          0.6804E+06
   1302      1     14      2      0.5045          0.6804E+06
   1303      1     14      3      0.5015          0.6804E+06
   1304      1     14      4      0.4975          0.6804E+06
   1305      1     14      5      0.4922          0.6804E+06
   1306      1     14      6      0.4855          0.6804E+06
   1307      1     14      7      0.4742          0.6804E+06
   1308      1     14      8      0.4567          0.6804E+06
   1309      1     14      9      0.4344          0.6804E+06
   1310      1     14     10      0.4021          0.6804E+06
   1311      1     14     11      0.3712          0.6804E+06
   1312      1     14     12      0.3364          0.6804E+06
   1313      1     14     13      0.3056          0.6804E+06
   1314      1     14     14      0.2873          0.6804E+06
   1315      1     14     15      0.2750          0.6804E+06
   1316      1     14     16      0.2695          0.6804E+06
   1317      1     14     17      0.2634          0.6804E+06
   1318      1     14     18      0.2561          0.6804E+06
   1319      1     14     19      0.2487          0.6804E+06
   1320      1     14     20      0.2391          0.6804E+06
   1321      1     14     21      0.2288          0.6804E+06
   1322      1     14     22      0.2196          0.6804E+06
   1323      1     14     23      0.2086          0.6804E+06
   1324      1     14     24      0.1984          0.6804E+06
   1325      1     14     25      0.1874          0.6804E+06
   1326      1     14     26      0.1778          0.6804E+06
   1327      1     14     27      0.1704          0.6804E+06
   1328      1     14     28      0.1641          0.6804E+06
   1329      1     14     29      0.1614          0.6804E+06
   1330      1     14     30      0.1607          0.6804E+06
   1331      1     14     31      0.1615          0.6804E+06
   1332      1     14     32      0.1645          0.6804E+06
   1333      1     14     33      0.1713          0.6804E+06
   1334      1     14     34      0.1816          0.6804E+06
   1335      1     14     35      0.1949          0.6804E+06
   1336      1     14     36      0.2137          0.6804E+06
   1337      1     14     37      0.2274          0.6804E+06
   1338      1     14     38      0.2180          0.6804E+06
   1339      1     14     39      0.1994          0.6804E+06
   1340      1     14     40      0.1844          0.6804E+06
   1341      1     14     41      0.1727          0.6804E+06
   1342      1     14     42      0.1647          0.6804E+06
   1343      1     14     43      0.1597          0.6804E+06
   1344      1     14     44      0.1550          0.6804E+06
   1345      1     14     45      0.1516          0.6804E+06
   1346      1     14     46      0.1502          0.6804E+06
   1347      1     14     47      0.1491          0.6804E+06
   1348      1     14     48      0.1487          0.6804E+06
   1349      1     14     49      0.1486          0.6804E+06
   1350      1     14     50      0.1485          0.6804E+06
   1351      1     14     51      0.1477          0.6804E+06
   1352      1     14     52      0.1458          0.6804E+06
   1353      1     14     53      0.1444          0.6804E+06
   1354      1     14     54      0.1436          0.6804E+06
   1355      1     14     55      0.1409          0.6804E+06
   1356      1     14     56      0.1375          0.6804E+06
   1357      1     14     57      0.1331          0.6804E+06
   1358      1     14     58      0.1289          0.6804E+06
   1359      1     14     59      0.1246          0.6804E+06
   1360      1     14     60      0.1194          0.6804E+06
   1361      1     14     61      0.1155          0.6804E+06
   1362      1     14     62      0.1122          0.6804E+06
   1363      1     14     63      0.1099          0.6804E+06
   1364      1     14     64      0.1065          0.6804E+06
   1365      1     14     65      0.1005          0.6804E+06
   1366      1     14     66      0.9264E-01      0.6804E+06
   1367      1     14     67      0.8619E-01      0.6804E+06
   1368      1     14     68      0.8330E-01      0.6804E+06
   1369      1     14     69      0.8193E-01      0.6804E+06
   1370      1     14     70      0.8018E-01      0.6804E+06
   1371      1     14     71      0.7730E-01      0.6804E+06
   1372      1     14     72      0.7382E-01      0.6804E+06
   1373      1     14     73      0.6933E-01      0.6804E+06
   1374      1     14     74      0.6537E-01      0.6804E+06
   1375      1     14     75      0.6226E-01      0.6804E+06
   1376      1     14     76      0.5722E-01      0.6804E+06
   1377      1     14     77      0.5278E-01      0.6804E+06
   1378      1     14     78      0.4708E-01      0.6804E+06
   1379      1     14     79      0.3986E-01      0.6804E+06
   1380      1     14     80      0.3278E-01      0.6804E+06
   1381      1     14     81      0.2332E-01      0.6804E+06
   1382      1     14     82      0.1378E-01      0.6804E+06
   1383      1     14     83      0.6767E-02      0.6804E+06
   1384      1     14     84       0.000          0.6804E+06
   1385      1     14     85       0.000          0.6804E+06
   1386      1     14     86       0.000          0.6804E+06
   1387      1     14     87     -0.6990E-01      0.6804E+06
   1388      1     14     88     -0.8457E-01      0.6804E+06
   1389      1     14     89     -0.1005          0.6804E+06
   1390      1     14     90     -0.1123          0.6804E+06
   1391      1     14     91     -0.1239          0.6804E+06
   1392      1     14     92     -0.1294          0.6804E+06
   1393      1     14     93     -0.1235          0.6804E+06
   1394      1     14     94     -0.1113          0.6804E+06
   1395      1     14     95     -0.1083          0.6804E+06
   1396      1     14     96     -0.1203          0.6804E+06
   1397      1     14     97     -0.1151          0.6804E+06
   1398      1     14     98     -0.9548E-01      0.6804E+06
   1399      1     14     99     -0.9044E-01      0.6804E+06
   1400      1     14    100     -0.9852E-01      0.6804E+06
   1401      1     15      1      0.5097          0.6804E+06
   1402      1     15      2      0.5056          0.6804E+06
   1403      1     15      3      0.5017          0.6804E+06
   1404      1     15      4      0.4968          0.6804E+06
   1405      1     15      5      0.4910          0.6804E+06
   1406      1     15      6      0.4845          0.6804E+06
   1407      1     15      7      0.4742          0.6804E+06
   1408      1     15      8      0.4581          0.6804E+06
   1409      1     15      9      0.4357          0.6804E+06
   1410      1     15     10      0.4026          0.6804E+06
   1411      1     15     11      0.3704          0.6804E+06
   1412      1     15     12      0.3344          0.6804E+06
   1413      1     15     13      0.3034          0.6804E+06
   1414      1     15     14      0.2839          0.6804E+06
   1415      1     15     15      0.2688          0.6804E+06
   1416      1     15     16      0.2604          0.6804E+06
   1417      1     15     17      0.2518          0.6804E+06
   1418      1     15     18      0.2425          0.6804E+06
   1419      1     15     19      0.2338          0.6804E+06
   1420      1     15     20      0.2228          0.6804E+06
   1421      1     15     21      0.2115          0.6804E+06
   1422      1     15     22      0.2016          0.6804E+06
   1423      1     15     23      0.1904          0.6804E+06
   1424      1     15     24      0.1804          0.6804E+06
   1425      1     15     25      0.1697          0.6804E+06
   1426      1     15     26      0.1606          0.6804E+06
   1427      1     15     27      0.1537          0.6804E+06
   1428      1     15     28      0.1482          0.6804E+06
   1429      1     15     29      0.1468          0.6804E+06
   1430      1     15     30      0.1467          0.6804E+06
   1431      1     15     31      0.1483          0.6804E+06
   1432      1     15     32      0.1522          0.6804E+06
   1433      1     15     33      0.1601          0.6804E+06
   1434      1     15     34      0.1709          0.6804E+06
   1435      1     15     35      0.1831          0.6804E+06
   1436      1     15     36      0.1983          0.6804E+06
   1437      1     15     37      0.2078          0.6804E+06
   1438      1     15     38      0.2007          0.6804E+06
   1439      1     15     39      0.1863          0.6804E+06
   1440      1     15     40      0.1735          0.6804E+06
   1441      1     15     41      0.1624          0.6804E+06
   1442      1     15     42      0.1549          0.6804E+06
   1443      1     15     43      0.1497          0.6804E+06
   1444      1     15     44      0.1454          0.6804E+06
   1445      1     15     45      0.1435          0.6804E+06
   1446      1     15     46      0.1436          0.6804E+06
   1447      1     15     47      0.1428          0.6804E+06
   1448      1     15     48      0.1416          0.6804E+06
   1449      1     15     49      0.1399          0.6804E+06
   1450      1     15     50      0.1384          0.6804E+06
   1451      1     15     51      0.1357          0.6804E+06
   1452      1     15     52      0.1348          0.6804E+06
   1453      1     15     53      0.1345          0.6804E+06
   1454      1     15     54      0.1321          0.6804E+06
   1455      1     15     55      0.1286          0.6804E+06
   1456      1     15     56      0.1247          0.6804E+06
   1457      1     15     57      0.1202          0.6804E+06
   1458      1     15     58      0.1164          0.6804E+06
   1459      1     15     59      0.1120          0.6804E+06
   1460      1     15     60      0.1064          0.6804E+06
   1461      1     15     61      0.1027          0.6804E+06
   1462      1     15     62      0.1004          0.6804E+06
   1463      1     15     63      0.9913E-01      0.6804E+06
   1464      1     15     64      0.9672E-01      0.6804E+06
   1465      1     15     65      0.9227E-01      0.6804E+06
   1466      1     15     66      0.8654E-01      0.6804E+06
   1467      1     15     67      0.8177E-01      0.6804E+06
   1468      1     15     68      0.7807E-01      0.6804E+06
   1469      1     15     69      0.7570E-01      0.6804E+06
   1470      1     15     70      0.7318E-01      0.6804E+06
   1471      1     15     71      0.6998E-01      0.6804E+06
   1472      1     15     72      0.6634E-01      0.6804E+06
   1473      1     15     73      0.6178E-01      0.6804E+06
   1474      1     15     74      0.5740E-01      0.6804E+06
   1475      1     15     75      0.5345E-01      0.6804E+06
   1476      1     15     76      0.4765E-01      0.6804E+06
   1477      1     15     77      0.4245E-01      0.6804E+06
   1478      1     15     78      0.3577E-01      0.6804E+06
   1479      1     15     79      0.2695E-01      0.6804E+06
   1480      1     15     80      0.1672E-01      0.6804E+06
   1481      1     15     81      0.4409E-02      0.6804E+06
   1482      1     15     82       0.000          0.6804E+06
   1483      1     15     83       0.000          0.6804E+06
   1484      1     15     84       0.000          0.6804E+06
   1485      1     15     85     -0.5727E-01      0.6804E+06
   1486      1     15     86     -0.7659E-01      0.6804E+06
   1487      1     15     87     -0.9258E-01      0.6804E+06
   1488      1     15     88     -0.1039          0.6804E+06
   1489      1     15     89     -0.1146          0.6804E+06
   1490      1     15     90     -0.1237          0.6804E+06
   1491      1     15     91     -0.1298          0.6804E+06
   1492      1     15     92     -0.1364          0.6804E+06
   1493      1     15     93     -0.9256E-01      0.6804E+06
   1494      1     15     94     -0.6529E-01      0.6804E+06
   1495      1     15     95     -0.4532E-01      0.6804E+06
   1496      1     15     96     -0.3364E-01      0.6804E+06
   1497      1     15     97     -0.2528E-01      0.6804E+06
   1498      1     15     98     -0.1991E-01      0.6804E+06
   1499      1     15     99     -0.2013E-01      0.6804E+06
   1500      1     15    100     -0.2466E-01      0.6804E+06
   1501      1     16      1      0.5117          0.6804E+06
   1502      1     16      2      0.5062          0.6804E+06
   1503      1     16      3      0.5011          0.6804E+06
   1504      1     16      4      0.4951          0.6804E+06
   1505      1     16      5      0.4888          0.6804E+06
   1506      1     16      6      0.4828          0.6804E+06
   1507      1     16      7      0.4744          0.6804E+06
   1508      1     16      8      0.4616          0.6804E+06
   1509      1     16      9      0.4391          0.6804E+06
   1510      1     16     10      0.4047          0.6804E+06
   1511      1     16     11      0.3710          0.6804E+06
   1512      1     16     12      0.3335          0.6804E+06
   1513      1     16     13      0.3011          0.6804E+06
   1514      1     16     14      0.2806          0.6804E+06
   1515      1     16     15      0.2641          0.6804E+06
   1516      1     16     16      0.2535          0.6804E+06
   1517      1     16     17      0.2422          0.6804E+06
   1518      1     16     18      0.2306          0.6804E+06
   1519      1     16     19      0.2201          0.6804E+06
   1520      1     16     20      0.2073          0.6804E+06
   1521      1     16     21      0.1940          0.6804E+06
   1522      1     16     22      0.1829          0.6804E+06
   1523      1     16     23      0.1706          0.6804E+06
   1524      1     16     24      0.1597          0.6804E+06
   1525      1     16     25      0.1484          0.6804E+06
   1526      1     16     26      0.1396          0.6804E+06
   1527      1     16     27      0.1334          0.6804E+06
   1528      1     16     28      0.1290          0.6804E+06
   1529      1     16     29      0.1286          0.6804E+06
   1530      1     16     30      0.1287          0.6804E+06
   1531      1     16     31      0.1310          0.6804E+06
   1532      1     16     32      0.1358          0.6804E+06
   1533      1     16     33      0.1437          0.6804E+06
   1534      1     16     34      0.1528          0.6804E+06
   1535      1     16     35      0.1609          0.6804E+06
   1536      1     16     36      0.1686          0.6804E+06
   1537      1     16     37      0.1713          0.6804E+06
   1538      1     16     38      0.1682          0.6804E+06
   1539      1     16     39      0.1613          0.6804E+06
   1540      1     16     40      0.1537          0.6804E+06
   1541      1     16     41      0.1457          0.6804E+06
   1542      1     16     42      0.1414          0.6804E+06
   1543      1     16     43      0.1373          0.6804E+06
   1544      1     16     44      0.1339          0.6804E+06
   1545      1     16     45      0.1332          0.6804E+06
   1546      1     16     46      0.1338          0.6804E+06
   1547      1     16     47      0.1335          0.6804E+06
   1548      1     16     48      0.1321          0.6804E+06
   1549      1     16     49      0.1293          0.6804E+06
   1550      1     16     50      0.1260          0.6804E+06
   1551      1     16     51      0.1247          0.6804E+06
   1552      1     16     52      0.1238          0.6804E+06
   1553      1     16     53      0.1221          0.6804E+06
   1554      1     16     54      0.1190          0.6804E+06
   1555      1     16     55      0.1149          0.6804E+06
   1556      1     16     56      0.1106          0.6804E+06
   1557      1     16     57      0.1062          0.6804E+06
   1558      1     16     58      0.1032          0.6804E+06
   1559      1     16     59      0.9961E-01      0.6804E+06
   1560      1     16     60      0.9462E-01      0.6804E+06
   1561      1     16     61      0.9123E-01      0.6804E+06
   1562      1     16     62      0.8954E-01      0.6804E+06
   1563      1     16     63      0.8927E-01      0.6804E+06
   1564      1     16     64      0.8770E-01      0.6804E+06
   1565      1     16     65      0.8443E-01      0.6804E+06
   1566      1     16     66      0.8000E-01      0.6804E+06
   1567      1     16     67      0.7607E-01      0.6804E+06
   1568      1     16     68      0.7199E-01      0.6804E+06
   1569      1     16     69      0.6876E-01      0.6804E+06
   1570      1     16     70      0.6524E-01      0.6804E+06
   1571      1     16     71      0.6114E-01      0.6804E+06
   1572      1     16     72      0.5699E-01      0.6804E+06
   1573      1     16     73      0.5135E-01      0.6804E+06
   1574      1     16     74      0.4537E-01      0.6804E+06
   1575      1     16     75      0.4001E-01      0.6804E+06
   1576      1     16     76      0.3291E-01      0.6804E+06
   1577      1     16     77      0.2612E-01      0.6804E+06
   1578      1     16     78      0.1827E-01      0.6804E+06
   1579      1     16     79      0.9393E-02      0.6804E+06
   1580      1     16     80       0.000          0.6804E+06
   1581      1     16     81       0.000          0.6804E+06
   1582      1     16     82       0.000          0.6804E+06
   1583      1     16     83     -0.5502E-01      0.6804E+06
   1584      1     16     84     -0.7255E-01      0.6804E+06
   1585      1     16     85     -0.8768E-01      0.6804E+06
   1586      1     16     86     -0.1024          0.6804E+06
   1587      1     16     87     -0.1115          0.6804E+06
   1588      1     16     88     -0.1170          0.6804E+06
   1589      1     16     89     -0.1233          0.6804E+06
   1590      1     16     90     -0.1447          0.6804E+06
   1591      1     16     91     -0.1675          0.6804E+06
   1592      1     16     92     -0.8646E-01      0.6804E+06
   1593      1     16     93     -0.3336E-01      0.6804E+06
   1594      1     16     94     -0.6072E-02      0.6804E+06
   1595      1     16     95      0.8056E-02      0.6804E+06
   1596      1     16     96      0.1391E-01      0.6804E+06
   1597      1     16     97      0.1903E-01      0.6804E+06
   1598      1     16     98      0.2325E-01      0.6804E+06
   1599      1     16     99      0.2518E-01      0.6804E+06
   1600      1     16    100      0.2259E-01      0.6804E+06
   1601      1     17      1      0.5132          0.6804E+06
   1602      1     17      2      0.5061          0.6804E+06
   1603      1     17      3      0.4996          0.6804E+06
   1604      1     17      4      0.4924          0.6804E+06
   1605      1     17      5      0.4856          0.6804E+06
   1606      1     17      6      0.4796          0.6804E+06
   1607      1     17      7      0.4724          0.6804E+06
   1608      1     17      8      0.4619          0.6804E+06
   1609      1     17      9      0.4397          0.6804E+06
   1610      1     17     10      0.4053          0.6804E+06
   1611      1     17     11      0.3715          0.6804E+06
   1612      1     17     12      0.3337          0.6804E+06
   1613      1     17     13      0.3002          0.6804E+06
   1614      1     17     14      0.2792          0.6804E+06
   1615      1     17     15      0.2623          0.6804E+06
   1616      1     17     16      0.2502          0.6804E+06
   1617      1     17     17      0.2367          0.6804E+06
   1618      1     17     18      0.2231          0.6804E+06
   1619      1     17     19      0.2108          0.6804E+06
   1620      1     17     20      0.1962          0.6804E+06
   1621      1     17     21      0.1812          0.6804E+06
   1622      1     17     22      0.1685          0.6804E+06
   1623      1     17     23      0.1543          0.6804E+06
   1624      1     17     24      0.1419          0.6804E+06
   1625      1     17     25      0.1295          0.6804E+06
   1626      1     17     26      0.1200          0.6804E+06
   1627      1     17     27      0.1139          0.6804E+06
   1628      1     17     28      0.1103          0.6804E+06
   1629      1     17     29      0.1107          0.6804E+06
   1630      1     17     30      0.1120          0.6804E+06
   1631      1     17     31      0.1153          0.6804E+06
   1632      1     17     32      0.1203          0.6804E+06
   1633      1     17     33      0.1270          0.6804E+06
   1634      1     17     34      0.1337          0.6804E+06
   1635      1     17     35      0.1382          0.6804E+06
   1636      1     17     36      0.1404          0.6804E+06
   1637      1     17     37      0.1388          0.6804E+06
   1638      1     17     38      0.1377          0.6804E+06
   1639      1     17     39      0.1360          0.6804E+06
   1640      1     17     40      0.1331          0.6804E+06
   1641      1     17     41      0.1291          0.6804E+06
   1642      1     17     42      0.1276          0.6804E+06
   1643      1     17     43      0.1251          0.6804E+06
   1644      1     17     44      0.1228          0.6804E+06
   1645      1     17     45      0.1228          0.6804E+06
   1646      1     17     46      0.1235          0.6804E+06
   1647      1     17     47      0.1234          0.6804E+06
   1648      1     17     48      0.1220          0.6804E+06
   1649      1     17     49      0.1190          0.6804E+06
   1650      1     17     50      0.1160          0.6804E+06
   1651      1     17     51      0.1151          0.6804E+06
   1652      1     17     52      0.1138          0.6804E+06
   1653      1     17     53      0.1116          0.6804E+06
   1654      1     17     54      0.1082          0.6804E+06
   1655      1     17     55      0.1036          0.6804E+06
   1656      1     17     56      0.9933E-01      0.6804E+06
   1657      1     17     57      0.9552E-01      0.6804E+06
   1658      1     17     58      0.9389E-01      0.6804E+06
   1659      1     17     59      0.9159E-01      0.6804E+06
   1660      1     17     60      0.8807E-01      0.6804E+06
   1661      1     17     61      0.8546E-01      0.6804E+06
   1662      1     17     62      0.8386E-01      0.6804E+06
   1663      1     17     63      0.8290E-01      0.6804E+06
   1664      1     17     64      0.8115E-01      0.6804E+06
   1665      1     17     65      0.7799E-01      0.6804E+06
   1666      1     17     66      0.7371E-01      0.6804E+06
   1667      1     17     67      0.6994E-01      0.6804E+06
   1668      1     17     68      0.6543E-01      0.6804E+06
   1669      1     17     69      0.6161E-01      0.6804E+06
   1670      1     17     70      0.5726E-01      0.6804E+06
   1671      1     17     71      0.5201E-01      0.6804E+06
   1672      1     17     72      0.4704E-01      0.6804E+06
   1673      1     17     73      0.3964E-01      0.6804E+06
   1674      1     17     74      0.3137E-01      0.6804E+06
   1675      1     17     75      0.2447E-01      0.6804E+06
   1676      1     17     76      0.1673E-01      0.6804E+06
   1677      1     17     77      0.7928E-02      0.6804E+06
   1678      1     17     78       0.000          0.6804E+06
   1679      1     17     79       0.000          0.6804E+06
   1680      1     17     80       0.000          0.6804E+06
   1681      1     17     81     -0.5108E-01      0.6804E+06
   1682      1     17     82     -0.6802E-01      0.6804E+06
   1683      1     17     83     -0.8274E-01      0.6804E+06
   1684      1     17     84     -0.9991E-01      0.6804E+06
   1685      1     17     85     -0.1090          0.6804E+06
   1686      1     17     86     -0.1146          0.6804E+06
   1687      1     17     87     -0.1207          0.6804E+06
   1688      1     17     88     -0.1303          0.6804E+06
   1689      1     17     89     -0.1228          0.6804E+06
   1690      1     17     90     -0.1321          0.6804E+06
   1691      1     17     91     -0.1019          0.6804E+06
   1692      1     17     92     -0.4046E-01      0.6804E+06
   1693      1     17     93     -0.4846E-02      0.6804E+06
   1694      1     17     94      0.2199E-01      0.6804E+06
   1695      1     17     95      0.3200E-01      0.6804E+06
   1696      1     17     96      0.3853E-01      0.6804E+06
   1697      1     17     97      0.4280E-01      0.6804E+06
   1698      1     17     98      0.4569E-01      0.6804E+06
   1699      1     17     99      0.4825E-01      0.6804E+06
   1700      1     17    100      0.4855E-01      0.6804E+06
   1701      1     18      1      0.5150          0.6804E+06
   1702      1     18      2      0.5057          0.6804E+06
   1703      1     18      3      0.4971          0.6804E+06
   1704      1     18      4      0.4879          0.6804E+06
   1705      1     18      5      0.4798          0.6804E+06
   1706      1     18      6      0.4730          0.6804E+06
   1707      1     18      7      0.4644          0.6804E+06
   1708      1     18      8      0.4516          0.6804E+06
   1709      1     18      9      0.4319          0.6804E+06
   1710      1     18     10      0.4020          0.6804E+06
   1711      1     18     11      0.3718          0.6804E+06
   1712      1     18     12      0.3362          0.6804E+06
   1713      1     18     13      0.3032          0.6804E+06
   1714      1     18     14      0.2818          0.6804E+06
   1715      1     18     15      0.2638          0.6804E+06
   1716      1     18     16      0.2494          0.6804E+06
   1717      1     18     17      0.2333          0.6804E+06
   1718      1     18     18      0.2170          0.6804E+06
   1719      1     18     19      0.2027          0.6804E+06
   1720      1     18     20      0.1862          0.6804E+06
   1721      1     18     21      0.1691          0.6804E+06
   1722      1     18     22      0.1541          0.6804E+06
   1723      1     18     23      0.1371          0.6804E+06
   1724      1     18     24      0.1224          0.6804E+06
   1725      1     18     25      0.1077          0.6804E+06
   1726      1     18     26      0.9683E-01      0.6804E+06
   1727      1     18     27      0.9037E-01      0.6804E+06
   1728      1     18     28      0.8722E-01      0.6804E+06
   1729      1     18     29      0.8822E-01      0.6804E+06
   1730      1     18     30      0.9017E-01      0.6804E+06
   1731      1     18     31      0.9450E-01      0.6804E+06
   1732      1     18     32      0.1004          0.6804E+06
   1733      1     18     33      0.1067          0.6804E+06
   1734      1     18     34      0.1114          0.6804E+06
   1735      1     18     35      0.1126          0.6804E+06
   1736      1     18     36      0.1102          0.6804E+06
   1737      1     18     37      0.1052          0.6804E+06
   1738      1     18     38      0.1062          0.6804E+06
   1739      1     18     39      0.1093          0.6804E+06
   1740      1     18     40      0.1112          0.6804E+06
   1741      1     18     41      0.1112          0.6804E+06
   1742      1     18     42      0.1096          0.6804E+06
   1743      1     18     43      0.1083          0.6804E+06
   1744      1     18     44      0.1079          0.6804E+06
   1745      1     18     45      0.1090          0.6804E+06
   1746      1     18     46      0.1104          0.6804E+06
   1747      1     18     47      0.1104          0.6804E+06
   1748      1     18     48      0.1092          0.6804E+06
   1749      1     18     49      0.1066          0.6804E+06
   1750      1     18     50      0.1047          0.6804E+06
   1751      1     18     51      0.1038          0.6804E+06
   1752      1     18     52      0.1026          0.6804E+06
   1753      1     18     53      0.1007          0.6804E+06
   1754      1     18     54      0.9736E-01      0.6804E+06
   1755      1     18     55      0.9312E-01      0.6804E+06
   1756      1     18     56      0.8958E-01      0.6804E+06
   1757      1     18     57      0.8681E-01      0.6804E+06
   1758      1     18     58      0.8607E-01      0.6804E+06
   1759      1     18     59      0.8470E-01      0.6804E+06
   1760      1     18     60      0.8208E-01      0.6804E+06
   1761      1     18     61      0.7980E-01      0.6804E+06
   1762      1     18     62      0.7801E-01      0.6804E+06
   1763      1     18     63      0.7614E-01      0.6804E+06
   1764      1     18     64      0.7453E-01      0.6804E+06
   1765      1     18     65      0.7158E-01      0.6804E+06
   1766      1     18     66      0.6652E-01      0.6804E+06
   1767      1     18     67      0.6196E-01      0.6804E+06
   1768      1     18     68      0.5659E-01      0.6804E+06
   1769      1     18     69      0.5138E-01      0.6804E+06
   1770      1     18     70      0.4482E-01      0.6804E+06
   1771      1     18     71      0.3818E-01      0.6804E+06
   1772      1     18     72      0.3179E-01      0.6804E+06
   1773      1     18     73      0.2190E-01      0.6804E+06
   1774      1     18     74      0.1020E-01      0.6804E+06
   1775      1     18     75      0.1296E-02      0.6804E+06
   1776      1     18     76       0.000          0.6804E+06
   1777      1     18     77       0.000          0.6804E+06
   1778      1     18     78     -0.3925E-01      0.6804E+06
   1779      1     18     79     -0.5736E-01      0.6804E+06
   1780      1     18     80     -0.6973E-01      0.6804E+06
   1781      1     18     81     -0.8366E-01      0.6804E+06
   1782      1     18     82     -0.9921E-01      0.6804E+06
   1783      1     18     83     -0.1082          0.6804E+06
   1784      1     18     84     -0.1187          0.6804E+06
   1785      1     18     85     -0.1239          0.6804E+06
   1786      1     18     86     -0.1364          0.6804E+06
   1787      1     18     87     -0.1754          0.6804E+06
   1788      1     18     88     -0.1704          0.6804E+06
   1789      1     18     89     -0.1120          0.6804E+06
   1790      1     18     90     -0.7852E-01      0.6804E+06
   1791      1     18     91     -0.5010E-01      0.6804E+06
   1792      1     18     92     -0.1938E-01      0.6804E+06
   1793      1     18     93      0.1274E-01      0.6804E+06
   1794      1     18     94      0.3358E-01      0.6804E+06
   1795      1     18     95      0.4648E-01      0.6804E+06
   1796      1     18     96      0.5397E-01      0.6804E+06
   1797      1     18     97      0.5858E-01      0.6804E+06
   1798      1     18     98      0.6146E-01      0.6804E+06
   1799      1     18     99      0.6370E-01      0.6804E+06
   1800      1     18    100      0.6368E-01      0.6804E+06
   1801      1     19      1      0.5176          0.6804E+06
   1802      1     19      2      0.5056          0.6804E+06
   1803      1     19      3      0.4941          0.6804E+06
   1804      1     19      4      0.4822          0.6804E+06
   1805      1     19      5      0.4725          0.6804E+06
   1806      1     19      6      0.4650          0.6804E+06
   1807      1     19      7      0.4553          0.6804E+06
   1808      1     19      8      0.4415          0.6804E+06
   1809      1     19      9      0.4239          0.6804E+06
   1810      1     19     10      0.3986          0.6804E+06
   1811      1     19     11      0.3731          0.6804E+06
   1812      1     19     12      0.3424          0.6804E+06
   1813      1     19     13      0.3132          0.6804E+06
   1814      1     19     14      0.2912          0.6804E+06
   1815      1     19     15      0.2694          0.6804E+06
   1816      1     19     16      0.2516          0.6804E+06
   1817      1     19     17      0.2320          0.6804E+06
   1818      1     19     18      0.2130          0.6804E+06
   1819      1     19     19      0.1969          0.6804E+06
   1820      1     19     20      0.1786          0.6804E+06
   1821      1     19     21      0.1591          0.6804E+06
   1822      1     19     22      0.1416          0.6804E+06
   1823      1     19     23      0.1216          0.6804E+06
   1824      1     19     24      0.1042          0.6804E+06
   1825      1     19     25      0.8605E-01      0.6804E+06
   1826      1     19     26      0.7284E-01      0.6804E+06
   1827      1     19     27      0.6629E-01      0.6804E+06
   1828      1     19     28      0.6528E-01      0.6804E+06
   1829      1     19     29      0.6610E-01      0.6804E+06
   1830      1     19     30      0.6813E-01      0.6804E+06
   1831      1     19     31      0.7319E-01      0.6804E+06
   1832      1     19     32      0.8027E-01      0.6804E+06
   1833      1     19     33      0.8782E-01      0.6804E+06
   1834      1     19     34      0.9142E-01      0.6804E+06
   1835      1     19     35      0.9206E-01      0.6804E+06
   1836      1     19     36      0.9011E-01      0.6804E+06
   1837      1     19     37      0.8604E-01      0.6804E+06
   1838      1     19     38      0.8684E-01      0.6804E+06
   1839      1     19     39      0.9017E-01      0.6804E+06
   1840      1     19     40      0.9291E-01      0.6804E+06
   1841      1     19     41      0.9369E-01      0.6804E+06
   1842      1     19     42      0.9127E-01      0.6804E+06
   1843      1     19     43      0.9041E-01      0.6804E+06
   1844      1     19     44      0.9178E-01      0.6804E+06
   1845      1     19     45      0.9528E-01      0.6804E+06
   1846      1     19     46      0.9760E-01      0.6804E+06
   1847      1     19     47      0.9823E-01      0.6804E+06
   1848      1     19     48      0.9748E-01      0.6804E+06
   1849      1     19     49      0.9529E-01      0.6804E+06
   1850      1     19     50      0.9284E-01      0.6804E+06
   1851      1     19     51      0.9261E-01      0.6804E+06
   1852      1     19     52      0.9243E-01      0.6804E+06
   1853      1     19     53      0.9105E-01      0.6804E+06
   1854      1     19     54      0.8836E-01      0.6804E+06
   1855      1     19     55      0.8527E-01      0.6804E+06
   1856      1     19     56      0.8289E-01      0.6804E+06
   1857      1     19     57      0.8097E-01      0.6804E+06
   1858      1     19     58      0.7977E-01      0.6804E+06
   1859      1     19     59      0.7843E-01      0.6804E+06
   1860      1     19     60      0.7613E-01      0.6804E+06
   1861      1     19     61      0.7399E-01      0.6804E+06
   1862      1     19     62      0.7179E-01      0.6804E+06
   1863      1     19     63      0.6910E-01      0.6804E+06
   1864      1     19     64      0.6662E-01      0.6804E+06
   1865      1     19     65      0.6244E-01      0.6804E+06
   1866      1     19     66      0.5576E-01      0.6804E+06
   1867      1     19     67      0.4981E-01      0.6804E+06
   1868      1     19     68      0.4356E-01      0.6804E+06
   1869      1     19     69      0.3713E-01      0.6804E+06
   1870      1     19     70      0.2787E-01      0.6804E+06
   1871      1     19     71      0.1825E-01      0.6804E+06
   1872      1     19     72      0.1143E-01      0.6804E+06
   1873      1     19     73       0.000          0.6804E+06
   1874      1     19     74       0.000          0.6804E+06
   1875      1     19     75       0.000          0.6804E+06
   1876      1     19     76     -0.4811E-01      0.6804E+06
   1877      1     19     77     -0.6180E-01      0.6804E+06
   1878      1     19     78     -0.7619E-01      0.6804E+06
   1879      1     19     79     -0.8926E-01      0.6804E+06
   1880      1     19     80     -0.9948E-01      0.6804E+06
   1881      1     19     81     -0.1092          0.6804E+06
   1882      1     19     82     -0.1171          0.6804E+06
   1883      1     19     83     -0.1248          0.6804E+06
   1884      1     19     84     -0.1330          0.6804E+06
   1885      1     19     85     -0.1743          0.6804E+06
   1886      1     19     86     -0.1870          0.6804E+06
   1887      1     19     87     -0.1366          0.6804E+06
   1888      1     19     88     -0.9559E-01      0.6804E+06
   1889      1     19     89     -0.5371E-01      0.6804E+06
   1890      1     19     90     -0.3088E-01      0.6804E+06
   1891      1     19     91       0.000          0.6804E+06
   1892      1     19     92      0.6593E-02      0.6804E+06
   1893      1     19     93      0.2592E-01      0.6804E+06
   1894      1     19     94      0.4330E-01      0.6804E+06
   1895      1     19     95      0.5508E-01      0.6804E+06
   1896      1     19     96      0.6197E-01      0.6804E+06
   1897      1     19     97      0.6685E-01      0.6804E+06
   1898      1     19     98      0.6967E-01      0.6804E+06
   1899      1     19     99      0.7151E-01      0.6804E+06
   1900      1     19    100      0.7148E-01      0.6804E+06
   1901      1     20      1      0.5212          0.6804E+06
   1902      1     20      2      0.5070          0.6804E+06
   1903      1     20      3      0.4923          0.6804E+06
   1904      1     20      4      0.4771          0.6804E+06
   1905      1     20      5      0.4665          0.6804E+06
   1906      1     20      6      0.4589          0.6804E+06
   1907      1     20      7      0.4486          0.6804E+06
   1908      1     20      8      0.4348          0.6804E+06
   1909      1     20      9      0.4189          0.6804E+06
   1910      1     20     10      0.3970          0.6804E+06
   1911      1     20     11      0.3752          0.6804E+06
   1912      1     20     12      0.3487          0.6804E+06
   1913      1     20     13      0.3223          0.6804E+06
   1914      1     20     14      0.3000          0.6804E+06
   1915      1     20     15      0.2755          0.6804E+06
   1916      1     20     16      0.2546          0.6804E+06
   1917      1     20     17      0.2317          0.6804E+06
   1918      1     20     18      0.2100          0.6804E+06
   1919      1     20     19      0.1921          0.6804E+06
   1920      1     20     20      0.1726          0.6804E+06
   1921      1     20     21      0.1514          0.6804E+06
   1922      1     20     22      0.1320          0.6804E+06
   1923      1     20     23      0.1095          0.6804E+06
   1924      1     20     24      0.8968E-01      0.6804E+06
   1925      1     20     25      0.6781E-01      0.6804E+06
   1926      1     20     26      0.5087E-01      0.6804E+06
   1927      1     20     27      0.4460E-01      0.6804E+06
   1928      1     20     28      0.4977E-01      0.6804E+06
   1929      1     20     29      0.4771E-01      0.6804E+06
   1930      1     20     30      0.4847E-01      0.6804E+06
   1931      1     20     31      0.5406E-01      0.6804E+06
   1932      1     20     32      0.6286E-01      0.6804E+06
   1933      1     20     33      0.7250E-01      0.6804E+06
   1934      1     20     34      0.7727E-01      0.6804E+06
   1935      1     20     35      0.7922E-01      0.6804E+06
   1936      1     20     36      0.7916E-01      0.6804E+06
   1937      1     20     37      0.7646E-01      0.6804E+06
   1938      1     20     38      0.7621E-01      0.6804E+06
   1939      1     20     39      0.7841E-01      0.6804E+06
   1940      1     20     40      0.8075E-01      0.6804E+06
   1941      1     20     41      0.8079E-01      0.6804E+06
   1942      1     20     42      0.7755E-01      0.6804E+06
   1943      1     20     43      0.7669E-01      0.6804E+06
   1944      1     20     44      0.7909E-01      0.6804E+06
   1945      1     20     45      0.8425E-01      0.6804E+06
   1946      1     20     46      0.8734E-01      0.6804E+06
   1947      1     20     47      0.8883E-01      0.6804E+06
   1948      1     20     51      0.8471E-01      0.6804E+06
   1949      1     20     52      0.8441E-01      0.6804E+06
   1950      1     20     53      0.8326E-01      0.6804E+06
   1951      1     20     54      0.8101E-01      0.6804E+06
   1952      1     20     55      0.7882E-01      0.6804E+06
   1953      1     20     56      0.7735E-01      0.6804E+06
   1954      1     20     57      0.7594E-01      0.6804E+06
   1955      1     20     58      0.7366E-01      0.6804E+06
   1956      1     20     59      0.7195E-01      0.6804E+06
   1957      1     20     60      0.6980E-01      0.6804E+06
   1958      1     20     61      0.6777E-01      0.6804E+06
   1959      1     20     62      0.6493E-01      0.6804E+06
   1960      1     20     63      0.6146E-01      0.6804E+06
   1961      1     20     64      0.5748E-01      0.6804E+06
   1962      1     20     65      0.5119E-01      0.6804E+06
   1963      1     20     66      0.4242E-01      0.6804E+06
   1964      1     20     67      0.3469E-01      0.6804E+06
   1965      1     20     68      0.2779E-01      0.6804E+06
   1966      1     20     69      0.2071E-01      0.6804E+06
   1967      1     20     70      0.9427E-02      0.6804E+06
   1968      1     20     71       0.000          0.6804E+06
   1969      1     20     72       0.000          0.6804E+06
   1970      1     20     73       0.000          0.6804E+06
   1971      1     20     74     -0.5225E-01      0.6804E+06
   1972      1     20     75     -0.6646E-01      0.6804E+06
   1973      1     20     76     -0.8003E-01      0.6804E+06
   1974      1     20     77     -0.8980E-01      0.6804E+06
   1975      1     20     78     -0.9913E-01      0.6804E+06
   1976      1     20     79     -0.1119          0.6804E+06
   1977      1     20     80     -0.1193          0.6804E+06
   1978      1     20     81     -0.1278          0.6804E+06
   1979      1     20     82     -0.1351          0.6804E+06
   1980      1     20     83     -0.1553          0.6804E+06
   1981      1     20     84     -0.1670          0.6804E+06
   1982      1     20     85     -0.1711          0.6804E+06
   1983      1     20     86     -0.1401          0.6804E+06
   1984      1     20     87     -0.9201E-01      0.6804E+06
   1985      1     20     88     -0.5229E-01      0.6804E+06
   1986      1     20     89       0.000          0.6804E+06
   1987      1     20     90       0.000          0.6804E+06
   1988      1     20     91      0.7465E-02      0.6804E+06
   1989      1     20     92      0.2308E-01      0.6804E+06
   1990      1     20     93      0.3655E-01      0.6804E+06
   1991      1     20     94      0.4974E-01      0.6804E+06
   1992      1     20     95      0.5962E-01      0.6804E+06
   1993      1     20     96      0.6572E-01      0.6804E+06
   1994      1     20     97      0.7040E-01      0.6804E+06
   1995      1     20     98      0.7301E-01      0.6804E+06
   1996      1     20     99      0.7457E-01      0.6804E+06
   1997      1     20    100      0.7499E-01      0.6804E+06
   1998      1     21      1      0.5283          0.6804E+06
   1999      1     21      2      0.5123          0.6804E+06
   2000      1     21      3      0.4940          0.6804E+06
   2001      1     21      4      0.4748          0.6804E+06
   2002      1     21      5      0.4628          0.6804E+06
   2003      1     21      6      0.4548          0.6804E+06
   2004      1     21      7      0.4436          0.6804E+06
   2005      1     21      8      0.4298          0.6804E+06
   2006      1     21      9      0.4154          0.6804E+06
   2007      1     21     10      0.3965          0.6804E+06
   2008      1     21     11      0.3781          0.6804E+06
   2009      1     21     12      0.3558          0.6804E+06
   2010      1     21     13      0.3322          0.6804E+06
   2011      1     21     14      0.3099          0.6804E+06
   2012      1     21     15      0.2825          0.6804E+06
   2013      1     21     16      0.2579          0.6804E+06
   2014      1     21     17      0.2310          0.6804E+06
   2015      1     21     18      0.2059          0.6804E+06
   2016      1     21     19      0.1857          0.6804E+06
   2017      1     21     20      0.1643          0.6804E+06
   2018      1     21     21      0.1420          0.6804E+06
   2019      1     21     22      0.1219          0.6804E+06
   2020      1     21     23      0.9860E-01      0.6804E+06
   2021      1     21     24      0.7769E-01      0.6804E+06
   2022      1     21     25      0.5323E-01      0.6804E+06
   2023      1     21     26      0.2662E-01      0.6804E+06
   2024      1     21     27      0.1951E-01      0.6804E+06
   2025      1     21     28      0.4433E-01      0.6804E+06
   2026      1     21     29      0.2549E-01      0.6804E+06
   2027      1     21     30      0.2099E-01      0.6804E+06
   2028      1     21     31      0.2971E-01      0.6804E+06
   2029      1     21     32      0.4322E-01      0.6804E+06
   2030      1     21     33      0.5650E-01      0.6804E+06
   2031      1     21     34      0.6593E-01      0.6804E+06
   2032      1     21     35      0.7071E-01      0.6804E+06
   2033      1     21     36      0.7173E-01      0.6804E+06
   2034      1     21     37      0.6967E-01      0.6804E+06
   2035      1     21     38      0.6856E-01      0.6804E+06
   2036      1     21     39      0.6954E-01      0.6804E+06
   2037      1     21     40      0.7109E-01      0.6804E+06
   2038      1     21     41      0.6987E-01      0.6804E+06
   2039      1     21     56      0.6843E-01      0.6804E+06
   2040      1     21     57      0.6701E-01      0.6804E+06
   2041      1     21     58      0.6502E-01      0.6804E+06
   2042      1     21     59      0.6282E-01      0.6804E+06
   2043      1     21     60      0.5955E-01      0.6804E+06
   2044      1     21     61      0.5637E-01      0.6804E+06
   2045      1     21     62      0.5239E-01      0.6804E+06
   2046      1     21     63      0.4805E-01      0.6804E+06
   2047      1     21     64      0.4269E-01      0.6804E+06
   2048      1     21     65      0.3382E-01      0.6804E+06
   2049      1     21     66      0.2187E-01      0.6804E+06
   2050      1     21     67      0.1296E-01      0.6804E+06
   2051      1     21     68      0.5722E-02      0.6804E+06
   2052      1     21     69       0.000          0.6804E+06
   2053      1     21     70       0.000          0.6804E+06
   2054      1     21     71       0.000          0.6804E+06
   2055      1     21     72     -0.5984E-01      0.6804E+06
   2056      1     21     73     -0.7586E-01      0.6804E+06
   2057      1     21     74     -0.8862E-01      0.6804E+06
   2058      1     21     75     -0.9608E-01      0.6804E+06
   2059      1     21     76     -0.1089          0.6804E+06
   2060      1     21     77     -0.1181          0.6804E+06
   2061      1     21     78     -0.1232          0.6804E+06
   2062      1     21     79     -0.1322          0.6804E+06
   2063      1     21     80     -0.1400          0.6804E+06
   2064      1     21     81     -0.1672          0.6804E+06
   2065      1     21     82     -0.2166          0.6804E+06
   2066      1     21     83     -0.2055          0.6804E+06
   2067      1     21     84     -0.1453          0.6804E+06
   2068      1     21     85     -0.1382          0.6804E+06
   2069      1     21     86     -0.8910E-01      0.6804E+06
   2070      1     21     87     -0.4775E-01      0.6804E+06
   2071      1     21     88       0.000          0.6804E+06
   2072      1     21     89       0.000          0.6804E+06
   2073      1     21     90      0.1509E-01      0.6804E+06
   2074      1     21     91      0.2457E-01      0.6804E+06
   2075      1     21     92      0.3599E-01      0.6804E+06
   2076      1     21     93      0.4528E-01      0.6804E+06
   2077      1     21     94      0.5461E-01      0.6804E+06
   2078      1     21     95      0.6213E-01      0.6804E+06
   2079      1     21     96      0.6685E-01      0.6804E+06
   2080      1     21     97      0.7109E-01      0.6804E+06
   2081      1     21     98      0.7354E-01      0.6804E+06
   2082      1     21     99      0.7491E-01      0.6804E+06
   2083      1     21    100      0.7587E-01      0.6804E+06
   2084      1     22      1      0.5397          0.6804E+06
   2085      1     22      2      0.5251          0.6804E+06
   2086      1     22      3      0.5058          0.6804E+06
   2087      1     22      4      0.4843          0.6804E+06
   2088      1     22      5      0.4680          0.6804E+06
   2089      1     22      6      0.4561          0.6804E+06
   2090      1     22      7      0.4421          0.6804E+06
   2091      1     22      8      0.4279          0.6804E+06
   2092      1     22      9      0.4141          0.6804E+06
   2093      1     22     10      0.3970          0.6804E+06
   2094      1     22     11      0.3808          0.6804E+06
   2095      1     22     12      0.3618          0.6804E+06
   2096      1     22     13      0.3414          0.6804E+06
   2097      1     22     14      0.3195          0.6804E+06
   2098      1     22     15      0.2880          0.6804E+06
   2099      1     22     16      0.2597          0.6804E+06
   2100      1     22     17      0.2289          0.6804E+06
   2101      1     22     18      0.2005          0.6804E+06
   2102      1     22     19      0.1781          0.6804E+06
   2103      1     22     20      0.1552          0.6804E+06
   2104      1     22     21      0.1331          0.6804E+06
   2105      1     22     22      0.1138          0.6804E+06
   2106      1     22     23      0.9152E-01      0.6804E+06
   2107      1     22     24      0.7177E-01      0.6804E+06
   2108      1     22     25      0.5003E-01      0.6804E+06
   2109      1     22     26      0.3170E-01      0.6804E+06
   2110      1     22     27      0.1332E-01      0.6804E+06
   2111      1     22     28      0.2628E-01      0.6804E+06
   2112      1     22     29       0.000          0.6804E+06
   2113      1     22     30       0.000          0.6804E+06
   2114      1     22     31      0.1089E-01      0.6804E+06
   2115      1     22     32      0.3030E-01      0.6804E+06
   2116      1     22     33      0.4736E-01      0.6804E+06
   2117      1     22     34      0.5962E-01      0.6804E+06
   2118      1     22     35      0.6580E-01      0.6804E+06
   2119      1     22     36      0.6719E-01      0.6804E+06
   2120      1     22     37      0.6602E-01      0.6804E+06
   2121      1     22     38      0.6520E-01      0.6804E+06
   2122      1     22     39      0.6522E-01      0.6804E+06
   2123      1     22     40      0.6541E-01      0.6804E+06
   2124      1     22     58      0.5167E-01      0.6804E+06
   2125      1     22     59      0.4858E-01      0.6804E+06
   2126      1     22     60      0.4324E-01      0.6804E+06
   2127      1     22     61      0.3784E-01      0.6804E+06
   2128      1     22     62      0.3180E-01      0.6804E+06
   2129      1     22     63      0.2760E-01      0.6804E+06
   2130      1     22     64      0.2118E-01      0.6804E+06
   2131      1     22     65      0.1040E-01      0.6804E+06
   2132      1     22     66       0.000          0.6804E+06
   2133      1     22     67       0.000          0.6804E+06
   2134      1     22     68       0.000          0.6804E+06
   2135      1     22     69     -0.5388E-01      0.6804E+06
   2136      1     22     70     -0.7121E-01      0.6804E+06
   2137      1     22     71     -0.8543E-01      0.6804E+06
   2138      1     22     72     -0.9678E-01      0.6804E+06
   2139      1     22     73     -0.1098          0.6804E+06
   2140      1     22     74     -0.1186          0.6804E+06
   2141      1     22     75     -0.1246          0.6804E+06
   2142      1     22     76     -0.1308          0.6804E+06
   2143      1     22     77     -0.1319          0.6804E+06
   2144      1     22     78     -0.1394          0.6804E+06
   2145      1     22     79     -0.1773          0.6804E+06
   2146      1     22     80     -0.2159          0.6804E+06
   2147      1     22     81     -0.1942          0.6804E+06
   2148      1     22     82     -0.1955          0.6804E+06
   2149      1     22     83     -0.1474          0.6804E+06
   2150      1     22     84     -0.1060          0.6804E+06
   2151      1     22     85     -0.6993E-01      0.6804E+06
   2152      1     22     86       0.000          0.6804E+06
   2153      1     22     87       0.000          0.6804E+06
   2154      1     22     88       0.000          0.6804E+06
   2155      1     22     89      0.1211E-01      0.6804E+06
   2156      1     22     90      0.2588E-01      0.6804E+06
   2157      1     22     91      0.3478E-01      0.6804E+06
   2158      1     22     92      0.4396E-01      0.6804E+06
   2159      1     22     93      0.5101E-01      0.6804E+06
   2160      1     22     94      0.5786E-01      0.6804E+06
   2161      1     22     95      0.6308E-01      0.6804E+06
   2162      1     22     96      0.6635E-01      0.6804E+06
   2163      1     22     97      0.6944E-01      0.6804E+06
   2164      1     22     98      0.7140E-01      0.6804E+06
   2165      1     22     99      0.7274E-01      0.6804E+06
   2166      1     22    100      0.7385E-01      0.6804E+06
   2167      1     23      1      0.5520          0.6804E+06
   2168      1     23      2      0.5408          0.6804E+06
   2169      1     23      3      0.5202          0.6804E+06
   2170      1     23      4      0.4966          0.6804E+06
   2171      1     23      5      0.4765          0.6804E+06
   2172      1     23      6      0.4610          0.6804E+06
   2173      1     23      7      0.4440          0.6804E+06
   2174      1     23      8      0.4285          0.6804E+06
   2175      1     23      9      0.4144          0.6804E+06
   2176      1     23     10      0.3974          0.6804E+06
   2177      1     23     11      0.3819          0.6804E+06
   2178      1     23     12      0.3644          0.6804E+06
   2179      1     23     13      0.3474          0.6804E+06
   2180      1     23     14      0.3260          0.6804E+06
   2181      1     23     15      0.2897          0.6804E+06
   2182      1     23     16      0.2587          0.6804E+06
   2183      1     23     17      0.2254          0.6804E+06
   2184      1     23     18      0.1947          0.6804E+06
   2185      1     23     19      0.1708          0.6804E+06
   2186      1     23     20      0.1478          0.6804E+06
   2187      1     23     21      0.1265          0.6804E+06
   2188      1     23     22      0.1084          0.6804E+06
   2189      1     23     23      0.8793E-01      0.6804E+06
   2190      1     23     24      0.7006E-01      0.6804E+06
   2191      1     23     25      0.5140E-01      0.6804E+06
   2192      1     23     26      0.3883E-01      0.6804E+06
   2193      1     23     27      0.2785E-01      0.6804E+06
   2194      1     23     28       0.000          0.6804E+06
   2195      1     23     29       0.000          0.6804E+06
   2196      1     23     30       0.000          0.6804E+06
   2197      1     23     31      0.9357E-02      0.6804E+06
   2198      1     23     32      0.2478E-01      0.6804E+06
   2199      1     23     33      0.4210E-01      0.6804E+06
   2200      1     23     34      0.5482E-01      0.6804E+06
   2201      1     23     35      0.6166E-01      0.6804E+06
   2202      1     23     36      0.6455E-01      0.6804E+06
   2203      1     23     37      0.6526E-01      0.6804E+06
   2204      1     23     38      0.6508E-01      0.6804E+06
   2205      1     23     59      0.3087E-01      0.6804E+06
   2206      1     23     60      0.2388E-01      0.6804E+06
   2207      1     23     61      0.1734E-01      0.6804E+06
   2208      1     23     62      0.9759E-02      0.6804E+06
   2209      1     23     63      0.3691E-04      0.6804E+06
   2210      1     23     64       0.000          0.6804E+06
   2211      1     23     65       0.000          0.6804E+06
   2212      1     23     66       0.000          0.6804E+06
   2213      1     23     67     -0.6429E-01      0.6804E+06
   2214      1     23     68     -0.7789E-01      0.6804E+06
   2215      1     23     69     -0.8895E-01      0.6804E+06
   2216      1     23     70     -0.9971E-01      0.6804E+06
   2217      1     23     71     -0.1150          0.6804E+06
   2218      1     23     72     -0.1293          0.6804E+06
   2219      1     23     73     -0.1382          0.6804E+06
   2220      1     23     74     -0.1395          0.6804E+06
   2221      1     23     75     -0.1378          0.6804E+06
   2222      1     23     76     -0.1377          0.6804E+06
   2223      1     23     77     -0.1564          0.6804E+06
   2224      1     23     78     -0.1950          0.6804E+06
   2225      1     23     79     -0.2110          0.6804E+06
   2226      1     23     80     -0.1932          0.6804E+06
   2227      1     23     81     -0.1496          0.6804E+06
   2228      1     23     82     -0.1241          0.6804E+06
   2229      1     23     83     -0.1013          0.6804E+06
   2230      1     23     84     -0.5873E-01      0.6804E+06
   2231      1     23     85       0.000          0.6804E+06
   2232      1     23     86       0.000          0.6804E+06
   2233      1     23     87       0.000          0.6804E+06
   2234      1     23     88      0.6357E-02      0.6804E+06
   2235      1     23     89      0.2101E-01      0.6804E+06
   2236      1     23     90      0.3282E-01      0.6804E+06
   2237      1     23     91      0.4095E-01      0.6804E+06
   2238      1     23     92      0.4867E-01      0.6804E+06
   2239      1     23     93      0.5437E-01      0.6804E+06
   2240      1     23     94      0.5959E-01      0.6804E+06
   2241      1     23     95      0.6295E-01      0.6804E+06
   2242      1     23     96      0.6479E-01      0.6804E+06
   2243      1     23     97      0.6647E-01      0.6804E+06
   2244      1     23     98      0.6781E-01      0.6804E+06
   2245      1     23     99      0.6939E-01      0.6804E+06
   2246      1     23    100      0.7081E-01      0.6804E+06
   2247      1     24      1      0.5624          0.6804E+06
   2248      1     24      2      0.5533          0.6804E+06
   2249      1     24      3      0.5331          0.6804E+06
   2250      1     24      4      0.5089          0.6804E+06
   2251      1     24      5      0.4865          0.6804E+06
   2252      1     24      6      0.4684          0.6804E+06
   2253      1     24      7      0.4489          0.6804E+06
   2254      1     24      8      0.4311          0.6804E+06
   2255      1     24      9      0.4154          0.6804E+06
   2256      1     24     10      0.3970          0.6804E+06
   2257      1     24     11      0.3804          0.6804E+06
   2258      1     24     12      0.3613          0.6804E+06
   2259      1     24     13      0.3411          0.6804E+06
   2260      1     24     14      0.3183          0.6804E+06
   2261      1     24     15      0.2838          0.6804E+06
   2262      1     24     16      0.2530          0.6804E+06
   2263      1     24     17      0.2191          0.6804E+06
   2264      1     24     18      0.1875          0.6804E+06
   2265      1     24     19      0.1630          0.6804E+06
   2266      1     24     20      0.1408          0.6804E+06
   2267      1     24     21      0.1210          0.6804E+06
   2268      1     24     22      0.1045          0.6804E+06
   2269      1     24     23      0.8624E-01      0.6804E+06
   2270      1     24     24      0.7046E-01      0.6804E+06
   2271      1     24     25      0.5300E-01      0.6804E+06
   2272      1     24     26      0.3452E-01      0.6804E+06
   2273      1     24     27      0.1671E-01      0.6804E+06
   2274      1     24     28       0.000          0.6804E+06
   2275      1     24     29       0.000          0.6804E+06
   2276      1     24     30       0.000          0.6804E+06
   2277      1     24     31      0.8186E-02      0.6804E+06
   2278      1     24     32      0.2327E-01      0.6804E+06
   2279      1     24     33      0.3770E-01      0.6804E+06
   2280      1     24     34      0.4867E-01      0.6804E+06
   2281      1     24     35      0.5470E-01      0.6804E+06
   2282      1     24     36      0.5938E-01      0.6804E+06
   2283      1     24     37      0.6178E-01      0.6804E+06
   2284      1     24     59      0.2941E-02      0.6804E+06
   2285      1     24     60       0.000          0.6804E+06
   2286      1     24     61       0.000          0.6804E+06
   2287      1     24     62       0.000          0.6804E+06
   2288      1     24     63       0.000          0.6804E+06
   2289      1     24     64     -0.6944E-01      0.6804E+06
   2290      1     24     65     -0.8212E-01      0.6804E+06
   2291      1     24     66     -0.9335E-01      0.6804E+06
   2292      1     24     67     -0.1019          0.6804E+06
   2293      1     24     68     -0.1167          0.6804E+06
   2294      1     24     69     -0.1275          0.6804E+06
   2295      1     24     70     -0.1398          0.6804E+06
   2296      1     24     71     -0.1495          0.6804E+06
   2297      1     24     72     -0.1539          0.6804E+06
   2298      1     24     73     -0.1523          0.6804E+06
   2299      1     24     74     -0.1554          0.6804E+06
   2300      1     24     75     -0.1661          0.6804E+06
   2301      1     24     76     -0.1933          0.6804E+06
   2302      1     24     77     -0.1703          0.6804E+06
   2303      1     24     78     -0.1617          0.6804E+06
   2304      1     24     79     -0.1706          0.6804E+06
   2305      1     24     80     -0.1427          0.6804E+06
   2306      1     24     81     -0.1124          0.6804E+06
   2307      1     24     82     -0.9734E-01      0.6804E+06
   2308      1     24     83     -0.6116E-01      0.6804E+06
   2309      1     24     84       0.000          0.6804E+06
   2310      1     24     85       0.000          0.6804E+06
   2311      1     24     86       0.000          0.6804E+06
   2312      1     24     87      0.2322E-02      0.6804E+06
   2313      1     24     88      0.1604E-01      0.6804E+06
   2314      1     24     89      0.2915E-01      0.6804E+06
   2315      1     24     90      0.3942E-01      0.6804E+06
   2316      1     24     91      0.4656E-01      0.6804E+06
   2317      1     24     92      0.5278E-01      0.6804E+06
   2318      1     24     93      0.5706E-01      0.6804E+06
   2319      1     24     94      0.6060E-01      0.6804E+06
   2320      1     24     95      0.6215E-01      0.6804E+06
   2321      1     24     96      0.6236E-01      0.6804E+06
   2322      1     24     97      0.6226E-01      0.6804E+06
   2323      1     24     98      0.6281E-01      0.6804E+06
   2324      1     24     99      0.6511E-01      0.6804E+06
   2325      1     24    100      0.6697E-01      0.6804E+06
   2326      1     25      1      0.5653          0.6804E+06
   2327      1     25      2      0.5549          0.6804E+06
   2328      1     25      3      0.5380          0.6804E+06
   2329      1     25      4      0.5159          0.6804E+06
   2330      1     25      5      0.4937          0.6804E+06
   2331      1     25      6      0.4749          0.6804E+06
   2332      1     25      7      0.4542          0.6804E+06
   2333      1     25      8      0.4340          0.6804E+06
   2334      1     25      9      0.4163          0.6804E+06
   2335      1     25     10      0.3957          0.6804E+06
   2336      1     25     11      0.3771          0.6804E+06
   2337      1     25     12      0.3553          0.6804E+06
   2338      1     25     13      0.3314          0.6804E+06
   2339      1     25     14      0.3072          0.6804E+06
   2340      1     25     15      0.2747          0.6804E+06
   2341      1     25     16      0.2452          0.6804E+06
   2342      1     25     17      0.2125          0.6804E+06
   2343      1     25     18      0.1819          0.6804E+06
   2344      1     25     19      0.1584          0.6804E+06
   2345      1     25     20      0.1368          0.6804E+06
   2346      1     25     21      0.1181          0.6804E+06
   2347      1     25     22      0.1030          0.6804E+06
   2348      1     25     23      0.8645E-01      0.6804E+06
   2349      1     25     24      0.7199E-01      0.6804E+06
   2350      1     25     25      0.5572E-01      0.6804E+06
   2351      1     25     26      0.3935E-01      0.6804E+06
   2352      1     25     27      0.2706E-01      0.6804E+06
   2353      1     25     28      0.1401E-01      0.6804E+06
   2354      1     25     29       0.000          0.6804E+06
   2355      1     25     30       0.000          0.6804E+06
   2356      1     25     31       0.000          0.6804E+06
   2357      1     25     32      0.1571E-01      0.6804E+06
   2358      1     25     33      0.3252E-01      0.6804E+06
   2359      1     25     34      0.3917E-01      0.6804E+06
   2360      1     25     35      0.4461E-01      0.6804E+06
   2361      1     25     36      0.5089E-01      0.6804E+06
   2362      1     25     60     -0.5845E-01      0.6804E+06
   2363      1     25     61     -0.6980E-01      0.6804E+06
   2364      1     25     62     -0.8115E-01      0.6804E+06
   2365      1     25     63     -0.9852E-01      0.6804E+06
   2366      1     25     64     -0.1112          0.6804E+06
   2367      1     25     65     -0.1245          0.6804E+06
   2368      1     25     66     -0.1429          0.6804E+06
   2369      1     25     67     -0.1540          0.6804E+06
   2370      1     25     68     -0.1563          0.6804E+06
   2371      1     25     69     -0.1533          0.6804E+06
   2372      1     25     70     -0.1554          0.6804E+06
   2373      1     25     71     -0.1575          0.6804E+06
   2374      1     25     72     -0.1625          0.6804E+06
   2375      1     25     73     -0.1936          0.6804E+06
   2376      1     25     74     -0.2176          0.6804E+06
   2377      1     25     75     -0.2075          0.6804E+06
   2378      1     25     76     -0.1673          0.6804E+06
   2379      1     25     77     -0.1284          0.6804E+06
   2380      1     25     78     -0.1172          0.6804E+06
   2381      1     25     79     -0.1462          0.6804E+06
   2382      1     25     80     -0.1218          0.6804E+06
   2383      1     25     81     -0.9369E-01      0.6804E+06
   2384      1     25     82     -0.6169E-01      0.6804E+06
   2385      1     25     83       0.000          0.6804E+06
   2386      1     25     84       0.000          0.6804E+06
   2387      1     25     85       0.000          0.6804E+06
   2388      1     25     86       0.000          0.6804E+06
   2389      1     25     87      0.1247E-01      0.6804E+06
   2390      1     25     88      0.2401E-01      0.6804E+06
   2391      1     25     89      0.3567E-01      0.6804E+06
   2392      1     25     90      0.4502E-01      0.6804E+06
   2393      1     25     91      0.5082E-01      0.6804E+06
   2394      1     25     92      0.5601E-01      0.6804E+06
   2395      1     25     93      0.5913E-01      0.6804E+06
   2396      1     25     94      0.6110E-01      0.6804E+06
   2397      1     25     95      0.6148E-01      0.6804E+06
   2398      1     25     96      0.6053E-01      0.6804E+06
   2399      1     25     97      0.5908E-01      0.6804E+06
   2400      1     25     98      0.5901E-01      0.6804E+06
   2401      1     25     99      0.6198E-01      0.6804E+06
   2402      1     25    100      0.6405E-01      0.6804E+06
   2403      1     26      1      0.5662          0.6804E+06
   2404      1     26      2      0.5547          0.6804E+06
   2405      1     26      3      0.5400          0.6804E+06
   2406      1     26      4      0.5203          0.6804E+06
   2407      1     26      5      0.4994          0.6804E+06
   2408      1     26      6      0.4808          0.6804E+06
   2409      1     26      7      0.4592          0.6804E+06
   2410      1     26      8      0.4370          0.6804E+06
   2411      1     26      9      0.4169          0.6804E+06
   2412      1     26     10      0.3932          0.6804E+06
   2413      1     26     11      0.3718          0.6804E+06
   2414      1     26     12      0.3464          0.6804E+06
   2415      1     26     13      0.3195          0.6804E+06
   2416      1     26     14      0.2940          0.6804E+06
   2417      1     26     15      0.2625          0.6804E+06
   2418      1     26     16      0.2345          0.6804E+06
   2419      1     26     17      0.2036          0.6804E+06
   2420      1     26     18      0.1750          0.6804E+06
   2421      1     26     19      0.1534          0.6804E+06
   2422      1     26     20      0.1329          0.6804E+06
   2423      1     26     21      0.1157          0.6804E+06
   2424      1     26     22      0.1024          0.6804E+06
   2425      1     26     23      0.8794E-01      0.6804E+06
   2426      1     26     24      0.7524E-01      0.6804E+06
   2427      1     26     25      0.6133E-01      0.6804E+06
   2428      1     26     26      0.4701E-01      0.6804E+06
   2429      1     26     27      0.3422E-01      0.6804E+06
   2430      1     26     28      0.2046E-01      0.6804E+06
   2431      1     26     29      0.3216E-02      0.6804E+06
   2432      1     26     30      0.6492E-02      0.6804E+06
   2433      1     26     31      0.1430E-01      0.6804E+06
   2434      1     26     32      0.1045E-01      0.6804E+06
   2435      1     26     33      0.1367E-01      0.6804E+06
   2436      1     26     34      0.2058E-01      0.6804E+06
   2437      1     26     35      0.2278E-01      0.6804E+06
   2438      1     26     36      0.3259E-01      0.6804E+06
   2439      1     26     60     -0.1136          0.6804E+06
   2440      1     26     61     -0.1314          0.6804E+06
   2441      1     26     62     -0.1392          0.6804E+06
   2442      1     26     63     -0.1579          0.6804E+06
   2443      1     26     64     -0.1656          0.6804E+06
   2444      1     26     65     -0.1685          0.6804E+06
   2445      1     26     66     -0.1647          0.6804E+06
   2446      1     26     67     -0.1576          0.6804E+06
   2447      1     26     68     -0.1543          0.6804E+06
   2448      1     26     69     -0.1562          0.6804E+06
   2449      1     26     70     -0.1770          0.6804E+06
   2450      1     26     71     -0.2020          0.6804E+06
   2451      1     26     72     -0.2427          0.6804E+06
   2452      1     26     73     -0.2004          0.6804E+06
   2453      1     26     74     -0.1797          0.6804E+06
   2454      1     26     75     -0.1721          0.6804E+06
   2455      1     26     76     -0.1524          0.6804E+06
   2456      1     26     77     -0.1368          0.6804E+06
   2457      1     26     78     -0.1045          0.6804E+06
   2458      1     26     79     -0.1009          0.6804E+06
   2459      1     26     80     -0.8650E-01      0.6804E+06
   2460      1     26     81     -0.5502E-01      0.6804E+06
   2461      1     26     82       0.000          0.6804E+06
   2462      1     26     83       0.000          0.6804E+06
   2463      1     26     84       0.000          0.6804E+06
   2464      1     26     85      0.3170E-02      0.6804E+06
   2465      1     26     86      0.1374E-01      0.6804E+06
   2466      1     26     87      0.2449E-01      0.6804E+06
   2467      1     26     88      0.3370E-01      0.6804E+06
   2468      1     26     89      0.4341E-01      0.6804E+06
   2469      1     26     90      0.5110E-01      0.6804E+06
   2470      1     26     91      0.5584E-01      0.6804E+06
   2471      1     26     92      0.5959E-01      0.6804E+06
   2472      1     26     93      0.6149E-01      0.6804E+06
   2473      1     26     94      0.6230E-01      0.6804E+06
   2474      1     26     95      0.6188E-01      0.6804E+06
   2475      1     26     96      0.6060E-01      0.6804E+06
   2476      1     26     97      0.5918E-01      0.6804E+06
   2477      1     26     98      0.5893E-01      0.6804E+06
   2478      1     26     99      0.6070E-01      0.6804E+06
   2479      1     26    100      0.6231E-01      0.6804E+06
   2480      1     27      1      0.5670          0.6804E+06
   2481      1     27      2      0.5548          0.6804E+06
   2482      1     27      3      0.5411          0.6804E+06
   2483      1     27      4      0.5230          0.6804E+06
   2484      1     27      5      0.5033          0.6804E+06
   2485      1     27      6      0.4853          0.6804E+06
   2486      1     27      7      0.4633          0.6804E+06
   2487      1     27      8      0.4393          0.6804E+06
   2488      1     27      9      0.4168          0.6804E+06
   2489      1     27     10      0.3899          0.6804E+06
   2490      1     27     11      0.3657          0.6804E+06
   2491      1     27     12      0.3373          0.6804E+06
   2492      1     27     13      0.3080          0.6804E+06
   2493      1     27     14      0.2813          0.6804E+06
   2494      1     27     15      0.2500          0.6804E+06
   2495      1     27     16      0.2230          0.6804E+06
   2496      1     27     17      0.1934          0.6804E+06
   2497      1     27     18      0.1666          0.6804E+06
   2498      1     27     19      0.1470          0.6804E+06
   2499      1     27     20      0.1288          0.6804E+06
   2500      1     27     21      0.1138          0.6804E+06
   2501      1     27     22      0.1025          0.6804E+06
   2502      1     27     23      0.9048E-01      0.6804E+06
   2503      1     27     24      0.7985E-01      0.6804E+06
   2504      1     27     25      0.6826E-01      0.6804E+06
   2505      1     27     26      0.5537E-01      0.6804E+06
   2506      1     27     27      0.4182E-01      0.6804E+06
   2507      1     27     28      0.2446E-01      0.6804E+06
   2508      1     27     29      0.7162E-02      0.6804E+06
   2509      1     27     30      0.1566E-02      0.6804E+06
   2510      1     27     31       0.000          0.6804E+06
   2511      1     27     32       0.000          0.6804E+06
   2512      1     27     33      0.7411E-02      0.6804E+06
   2513      1     27     34      0.1019E-01      0.6804E+06
   2514      1     27     35      0.9729E-02      0.6804E+06
   2515      1     27     60     -0.1669          0.6804E+06
   2516      1     27     61     -0.1695          0.6804E+06
   2517      1     27     62     -0.1695          0.6804E+06
   2518      1     27     63     -0.1640          0.6804E+06
   2519      1     27     64     -0.1552          0.6804E+06
   2520      1     27     65     -0.1487          0.6804E+06
   2521      1     27     66     -0.1467          0.6804E+06
   2522      1     27     67     -0.1566          0.6804E+06
   2523      1     27     68     -0.1705          0.6804E+06
   2524      1     27     69     -0.1952          0.6804E+06
   2525      1     27     70     -0.2166          0.6804E+06
   2526      1     27     71     -0.1907          0.6804E+06
   2527      1     27     72     -0.1551          0.6804E+06
   2528      1     27     73     -0.1254          0.6804E+06
   2529      1     27     74     -0.1171          0.6804E+06
   2530      1     27     75     -0.1069          0.6804E+06
   2531      1     27     76     -0.1040          0.6804E+06
   2532      1     27     77     -0.1249          0.6804E+06
   2533      1     27     78     -0.1072          0.6804E+06
   2534      1     27     79     -0.8735E-01      0.6804E+06
   2535      1     27     80       0.000          0.6804E+06
   2536      1     27     81       0.000          0.6804E+06
   2537      1     27     82       0.000          0.6804E+06
   2538      1     27     83       0.000          0.6804E+06
   2539      1     27     84      0.8255E-02      0.6804E+06
   2540      1     27     85      0.1729E-01      0.6804E+06
   2541      1     27     86      0.2705E-01      0.6804E+06
   2542      1     27     87      0.3572E-01      0.6804E+06
   2543      1     27     88      0.4322E-01      0.6804E+06
   2544      1     27     89      0.5101E-01      0.6804E+06
   2545      1     27     90      0.5687E-01      0.6804E+06
   2546      1     27     91      0.6061E-01      0.6804E+06
   2547      1     27     92      0.6297E-01      0.6804E+06
   2548      1     27     93      0.6383E-01      0.6804E+06
   2549      1     27     94      0.6386E-01      0.6804E+06
   2550      1     27     95      0.6304E-01      0.6804E+06
   2551      1     27     96      0.6184E-01      0.6804E+06
   2552      1     27     97      0.6064E-01      0.6804E+06
   2553      1     27     98      0.6021E-01      0.6804E+06
   2554      1     27     99      0.6093E-01      0.6804E+06
   2555      1     27    100      0.6193E-01      0.6804E+06
   2556      1     28      1      0.5681          0.6804E+06
   2557      1     28      2      0.5553          0.6804E+06
   2558      1     28      3      0.5419          0.6804E+06
   2559      1     28      4      0.5244          0.6804E+06
   2560      1     28      5      0.5055          0.6804E+06
   2561      1     28      6      0.4880          0.6804E+06
   2562      1     28      7      0.4664          0.6804E+06
   2563      1     28      8      0.4407          0.6804E+06
   2564      1     28      9      0.4160          0.6804E+06
   2565      1     28     10      0.3865          0.6804E+06
   2566      1     28     11      0.3601          0.6804E+06
   2567      1     28     12      0.3294          0.6804E+06
   2568      1     28     13      0.2984          0.6804E+06
   2569      1     28     14      0.2709          0.6804E+06
   2570      1     28     15      0.2394          0.6804E+06
   2571      1     28     16      0.2126          0.6804E+06
   2572      1     28     17      0.1836          0.6804E+06
   2573      1     28     18      0.1579          0.6804E+06
   2574      1     28     19      0.1401          0.6804E+06
   2575      1     28     20      0.1246          0.6804E+06
   2576      1     28     21      0.1124          0.6804E+06
   2577      1     28     22      0.1032          0.6804E+06
   2578      1     28     23      0.9354E-01      0.6804E+06
   2579      1     28     24      0.8489E-01      0.6804E+06
   2580      1     28     25      0.7478E-01      0.6804E+06
   2581      1     28     26      0.6319E-01      0.6804E+06
   2582      1     28     27      0.5140E-01      0.6804E+06
   2583      1     28     28      0.3795E-01      0.6804E+06
   2584      1     28     29      0.2614E-01      0.6804E+06
   2585      1     28     30      0.1001E-01      0.6804E+06
   2586      1     28     31       0.000          0.6804E+06
   2587      1     28     32       0.000          0.6804E+06
   2588      1     28     33     -0.2370E-01      0.6804E+06
   2589      1     28     34     -0.2966E-01      0.6804E+06
   2590      1     28     35     -0.3834E-01      0.6804E+06
   2591      1     28     60     -0.1601          0.6804E+06
   2592      1     28     61     -0.1565          0.6804E+06
   2593      1     28     62     -0.1534          0.6804E+06
   2594      1     28     63     -0.1489          0.6804E+06
   2595      1     28     64     -0.1477          0.6804E+06
   2596      1     28     65     -0.1612          0.6804E+06
   2597      1     28     66     -0.1845          0.6804E+06
   2598      1     28     67     -0.2015          0.6804E+06
   2599      1     28     68     -0.1858          0.6804E+06
   2600      1     28     69     -0.1682          0.6804E+06
   2601      1     28     70     -0.1525          0.6804E+06
   2602      1     28     71     -0.1304          0.6804E+06
   2603      1     28     72     -0.1094          0.6804E+06
   2604      1     28     73     -0.9369E-01      0.6804E+06
   2605      1     28     74     -0.8945E-01      0.6804E+06
   2606      1     28     75     -0.8233E-01      0.6804E+06
   2607      1     28     76     -0.6371E-01      0.6804E+06
   2608      1     28     77     -0.8235E-01      0.6804E+06
   2609      1     28     78       0.000          0.6804E+06
   2610      1     28     79       0.000          0.6804E+06
   2611      1     28     80       0.000          0.6804E+06
   2612      1     28     81       0.000          0.6804E+06
   2613      1     28     82       0.000          0.6804E+06
   2614      1     28     83      0.4225E-02      0.6804E+06
   2615      1     28     84      0.1971E-01      0.6804E+06
   2616      1     28     85      0.2828E-01      0.6804E+06
   2617      1     28     86      0.3682E-01      0.6804E+06
   2618      1     28     87      0.4423E-01      0.6804E+06
   2619      1     28     88      0.5042E-01      0.6804E+06
   2620      1     28     89      0.5677E-01      0.6804E+06
   2621      1     28     90      0.6140E-01      0.6804E+06
   2622      1     28     91      0.6408E-01      0.6804E+06
   2623      1     28     92      0.6547E-01      0.6804E+06
   2624      1     28     93      0.6569E-01      0.6804E+06
   2625      1     28     94      0.6522E-01      0.6804E+06
   2626      1     28     95      0.6421E-01      0.6804E+06
   2627      1     28     96      0.6312E-01      0.6804E+06
   2628      1     28     97      0.6201E-01      0.6804E+06
   2629      1     28     98      0.6146E-01      0.6804E+06
   2630      1     28     99      0.6161E-01      0.6804E+06
   2631      1     28    100      0.6221E-01      0.6804E+06
   2632      1     29      1      0.5700          0.6804E+06
   2633      1     29      2      0.5563          0.6804E+06
   2634      1     29      3      0.5425          0.6804E+06
   2635      1     29      4      0.5251          0.6804E+06
   2636      1     29      5      0.5063          0.6804E+06
   2637      1     29      6      0.4890          0.6804E+06
   2638      1     29      7      0.4675          0.6804E+06
   2639      1     29      8      0.4403          0.6804E+06
   2640      1     29      9      0.4137          0.6804E+06
   2641      1     29     10      0.3820          0.6804E+06
   2642      1     29     11      0.3536          0.6804E+06
   2643      1     29     12      0.3207          0.6804E+06
   2644      1     29     13      0.2882          0.6804E+06
   2645      1     29     14      0.2600          0.6804E+06
   2646      1     29     15      0.2281          0.6804E+06
   2647      1     29     16      0.2013          0.6804E+06
   2648      1     29     17      0.1726          0.6804E+06
   2649      1     29     18      0.1479          0.6804E+06
   2650      1     29     19      0.1323          0.6804E+06
   2651      1     29     20      0.1201          0.6804E+06
   2652      1     29     21      0.1111          0.6804E+06
   2653      1     29     22      0.1046          0.6804E+06
   2654      1     29     23      0.9788E-01      0.6804E+06
   2655      1     29     24      0.9167E-01      0.6804E+06
   2656      1     29     25      0.8335E-01      0.6804E+06
   2657      1     29     26      0.7366E-01      0.6804E+06
   2658      1     29     27      0.6466E-01      0.6804E+06
   2659      1     29     28      0.5424E-01      0.6804E+06
   2660      1     29     29      0.4269E-01      0.6804E+06
   2661      1     29     30      0.3068E-01      0.6804E+06
   2662      1     29     31      0.1058E-01      0.6804E+06
   2663      1     29     32     -0.2452E-01      0.6804E+06
   2664      1     29     33     -0.6142E-01      0.6804E+06
   2665      1     29     34     -0.1176          0.6804E+06
   2666      1     29     60     -0.1426          0.6804E+06
   2667      1     29     61     -0.1485          0.6804E+06
   2668      1     29     62     -0.1593          0.6804E+06
   2669      1     29     63     -0.1783          0.6804E+06
   2670      1     29     64     -0.1805          0.6804E+06
   2671      1     29     65     -0.1835          0.6804E+06
   2672      1     29     66     -0.1853          0.6804E+06
   2673      1     29     67     -0.1685          0.6804E+06
   2674      1     29     68     -0.1458          0.6804E+06
   2675      1     29     69     -0.1241          0.6804E+06
   2676      1     29     70     -0.1134          0.6804E+06
   2677      1     29     71     -0.1011          0.6804E+06
   2678      1     29     72     -0.7897E-01      0.6804E+06
   2679      1     29     73     -0.6220E-01      0.6804E+06
   2680      1     29     74     -0.6153E-01      0.6804E+06
   2681      1     29     75     -0.5850E-01      0.6804E+06
   2682      1     29     76       0.000          0.6804E+06
   2683      1     29     77       0.000          0.6804E+06
   2684      1     29     78       0.000          0.6804E+06
   2685      1     29     79       0.000          0.6804E+06
   2686      1     29     80       0.000          0.6804E+06
   2687      1     29     81       0.000          0.6804E+06
   2688      1     29     82       0.000          0.6804E+06
   2689      1     29     83      0.1538E-01      0.6804E+06
   2690      1     29     84      0.2834E-01      0.6804E+06
   2691      1     29     85      0.3735E-01      0.6804E+06
   2692      1     29     86      0.4524E-01      0.6804E+06
   2693      1     29     87      0.5186E-01      0.6804E+06
   2694      1     29     88      0.5690E-01      0.6804E+06
   2695      1     29     89      0.6171E-01      0.6804E+06
   2696      1     29     90      0.6499E-01      0.6804E+06
   2697      1     29     91      0.6662E-01      0.6804E+06
   2698      1     29     92      0.6732E-01      0.6804E+06
   2699      1     29     93      0.6720E-01      0.6804E+06
   2700      1     29     94      0.6645E-01      0.6804E+06
   2701      1     29     95      0.6533E-01      0.6804E+06
   2702      1     29     96      0.6422E-01      0.6804E+06
   2703      1     29     97      0.6315E-01      0.6804E+06
   2704      1     29     98      0.6261E-01      0.6804E+06
   2705      1     29     99      0.6248E-01      0.6804E+06
   2706      1     29    100      0.6280E-01      0.6804E+06
   2707      1     30      1      0.5723          0.6804E+06
   2708      1     30      2      0.5574          0.6804E+06
   2709      1     30      3      0.5428          0.6804E+06
   2710      1     30      4      0.5247          0.6804E+06
   2711      1     30      5      0.5052          0.6804E+06
   2712      1     30      6      0.4870          0.6804E+06
   2713      1     30      7      0.4642          0.6804E+06
   2714      1     30      8      0.4366          0.6804E+06
   2715      1     30      9      0.4097          0.6804E+06
   2716      1     30     10      0.3771          0.6804E+06
   2717      1     30     11      0.3475          0.6804E+06
   2718      1     30     12      0.3131          0.6804E+06
   2719      1     30     13      0.2793          0.6804E+06
   2720      1     30     14      0.2507          0.6804E+06
   2721      1     30     15      0.2184          0.6804E+06
   2722      1     30     16      0.1913          0.6804E+06
   2723      1     30     17      0.1628          0.6804E+06
   2724      1     30     18      0.1394          0.6804E+06
   2725      1     30     19      0.1259          0.6804E+06
   2726      1     30     20      0.1165          0.6804E+06
   2727      1     30     21      0.1105          0.6804E+06
   2728      1     30     22      0.1066          0.6804E+06
   2729      1     30     23      0.1026          0.6804E+06
   2730      1     30     24      0.9869E-01      0.6804E+06
   2731      1     30     25      0.9259E-01      0.6804E+06
   2732      1     30     26      0.8508E-01      0.6804E+06
   2733      1     30     27      0.7842E-01      0.6804E+06
   2734      1     30     28      0.6991E-01      0.6804E+06
   2735      1     30     29      0.5887E-01      0.6804E+06
   2736      1     30     30      0.4643E-01      0.6804E+06
   2737      1     30     31      0.2974E-01      0.6804E+06
   2738      1     30     32      0.5549E-02      0.6804E+06
   2739      1     30     33     -0.8317E-01      0.6804E+06
   2740      1     30     60     -0.1572          0.6804E+06
   2741      1     30     61     -0.1861          0.6804E+06
   2742      1     30     62     -0.1805          0.6804E+06
   2743      1     30     63     -0.1792          0.6804E+06
   2744      1     30     64     -0.1654          0.6804E+06
   2745      1     30     65     -0.1576          0.6804E+06
   2746      1     30     66     -0.1482          0.6804E+06
   2747      1     30     67     -0.1200          0.6804E+06
   2748      1     30     68     -0.1172          0.6804E+06
   2749      1     30     69     -0.1047          0.6804E+06
   2750      1     30     70     -0.8185E-01      0.6804E+06
   2751      1     30     71     -0.6986E-01      0.6804E+06
   2752      1     30     72     -0.6020E-01      0.6804E+06
   2753      1     30     73     -0.5015E-01      0.6804E+06
   2754      1     30     74       0.000          0.6804E+06
   2755      1     30     75       0.000          0.6804E+06
   2756      1     30     76       0.000          0.6804E+06
   2757      1     30     77       0.000          0.6804E+06
   2758      1     30     78       0.000          0.6804E+06
   2759      1     30     79       0.000          0.6804E+06
   2760      1     30     80       0.000          0.6804E+06
   2761      1     30     81       0.000          0.6804E+06
   2762      1     30     82      0.9039E-02      0.6804E+06
   2763      1     30     83      0.2266E-01      0.6804E+06
   2764      1     30     84      0.3518E-01      0.6804E+06
   2765      1     30     85      0.4412E-01      0.6804E+06
   2766      1     30     86      0.5162E-01      0.6804E+06
   2767      1     30     87      0.5758E-01      0.6804E+06
   2768      1     30     88      0.6165E-01      0.6804E+06
   2769      1     30     89      0.6516E-01      0.6804E+06
   2770      1     30     90      0.6738E-01      0.6804E+06
   2771      1     30     91      0.6840E-01      0.6804E+06
   2772      1     30     92      0.6858E-01      0.6804E+06
   2773      1     30     93      0.6810E-01      0.6804E+06
   2774      1     30     94      0.6714E-01      0.6804E+06
   2775      1     30     95      0.6598E-01      0.6804E+06
   2776      1     30     96      0.6482E-01      0.6804E+06
   2777      1     30     97      0.6374E-01      0.6804E+06
   2778      1     30     98      0.6330E-01      0.6804E+06
   2779      1     30     99      0.6322E-01      0.6804E+06
   2780      1     30    100      0.6326E-01      0.6804E+06
   2781      1     31      1      0.5747          0.6804E+06
   2782      1     31      2      0.5586          0.6804E+06
   2783      1     31      3      0.5430          0.6804E+06
   2784      1     31      4      0.5236          0.6804E+06
   2785      1     31      5      0.5029          0.6804E+06
   2786      1     31      6      0.4835          0.6804E+06
   2787      1     31      7      0.4593          0.6804E+06
   2788      1     31      8      0.4317          0.6804E+06
   2789      1     31      9      0.4053          0.6804E+06
   2790      1     31     10      0.3730          0.6804E+06
   2791      1     31     11      0.3432          0.6804E+06
   2792      1     31     12      0.3081          0.6804E+06
   2793      1     31     13      0.2735          0.6804E+06
   2794      1     31     14      0.2447          0.6804E+06
   2795      1     31     15      0.2117          0.6804E+06
   2796      1     31     16      0.1840          0.6804E+06
   2797      1     31     17      0.1552          0.6804E+06
   2798      1     31     18      0.1327          0.6804E+06
   2799      1     31     19      0.1212          0.6804E+06
   2800      1     31     20      0.1142          0.6804E+06
   2801      1     31     21      0.1107          0.6804E+06
   2802      1     31     22      0.1090          0.6804E+06
   2803      1     31     23      0.1072          0.6804E+06
   2804      1     31     24      0.1047          0.6804E+06
   2805      1     31     25      0.1002          0.6804E+06
   2806      1     31     26      0.9431E-01      0.6804E+06
   2807      1     31     27      0.8889E-01      0.6804E+06
   2808      1     31     28      0.8146E-01      0.6804E+06
   2809      1     31     29      0.7090E-01      0.6804E+06
   2810      1     31     30      0.5776E-01      0.6804E+06
   2811      1     31     31      0.3528E-01      0.6804E+06
   2812      1     31     32      0.6134E-02      0.6804E+06
   2813      1     31     33     -0.9723E-01      0.6804E+06
   2814      1     31     60     -0.1393          0.6804E+06
   2815      1     31     61     -0.1466          0.6804E+06
   2816      1     31     62     -0.1492          0.6804E+06
   2817      1     31     63     -0.1516          0.6804E+06
   2818      1     31     64     -0.1403          0.6804E+06
   2819      1     31     65     -0.1504          0.6804E+06
   2820      1     31     66     -0.1346          0.6804E+06
   2821      1     31     67     -0.9755E-01      0.6804E+06
   2822      1     31     68     -0.9511E-01      0.6804E+06
   2823      1     31     69     -0.8620E-01      0.6804E+06
   2824      1     31     70     -0.6211E-01      0.6804E+06
   2825      1     31     71     -0.5246E-01      0.6804E+06
   2826      1     31     72       0.000          0.6804E+06
   2827      1     31     73       0.000          0.6804E+06
   2828      1     31     74       0.000          0.6804E+06
   2829      1     31     75       0.000          0.6804E+06
   2830      1     31     76       0.000          0.6804E+06
   2831      1     31     77       0.000          0.6804E+06
   2832      1     31     78       0.000          0.6804E+06
   2833      1     31     79       0.000          0.6804E+06
   2834      1     31     80       0.000          0.6804E+06
   2835      1     31     81       0.000          0.6804E+06
   2836      1     31     82      0.1615E-01      0.6804E+06
   2837      1     31     83      0.2860E-01      0.6804E+06
   2838      1     31     84      0.4041E-01      0.6804E+06
   2839      1     31     85      0.4886E-01      0.6804E+06
   2840      1     31     86      0.5607E-01      0.6804E+06
   2841      1     31     87      0.6131E-01      0.6804E+06
   2842      1     31     88      0.6460E-01      0.6804E+06
   2843      1     31     89      0.6714E-01      0.6804E+06
   2844      1     31     90      0.6860E-01      0.6804E+06
   2845      1     31     91      0.6926E-01      0.6804E+06
   2846      1     31     92      0.6919E-01      0.6804E+06
   2847      1     31     93      0.6858E-01      0.6804E+06
   2848      1     31     94      0.6752E-01      0.6804E+06
   2849      1     31     95      0.6632E-01      0.6804E+06
   2850      1     31     96      0.6513E-01      0.6804E+06
   2851      1     31     97      0.6410E-01      0.6804E+06
   2852      1     31     98      0.6385E-01      0.6804E+06
   2853      1     31     99      0.6373E-01      0.6804E+06
   2854      1     31    100      0.6355E-01      0.6804E+06
   2855      1     32      1      0.5779          0.6804E+06
   2856      1     32      2      0.5603          0.6804E+06
   2857      1     32      3      0.5432          0.6804E+06
   2858      1     32      4      0.5223          0.6804E+06
   2859      1     32      5      0.4998          0.6804E+06
   2860      1     32      6      0.4791          0.6804E+06
   2861      1     32      7      0.4540          0.6804E+06
   2862      1     32      8      0.4267          0.6804E+06
   2863      1     32      9      0.4011          0.6804E+06
   2864      1     32     10      0.3698          0.6804E+06
   2865      1     32     11      0.3407          0.6804E+06
   2866      1     32     12      0.3063          0.6804E+06
   2867      1     32     13      0.2716          0.6804E+06
   2868      1     32     14      0.2416          0.6804E+06
   2869      1     32     15      0.2072          0.6804E+06
   2870      1     32     16      0.1779          0.6804E+06
   2871      1     32     17      0.1474          0.6804E+06
   2872      1     32     18      0.1244          0.6804E+06
   2873      1     32     19      0.1160          0.6804E+06
   2874      1     32     20      0.1127          0.6804E+06
   2875      1     32     21      0.1123          0.6804E+06
   2876      1     32     22      0.1126          0.6804E+06
   2877      1     32     23      0.1128          0.6804E+06
   2878      1     32     24      0.1111          0.6804E+06
   2879      1     32     25      0.1078          0.6804E+06
   2880      1     32     26      0.1035          0.6804E+06
   2881      1     32     27      0.9883E-01      0.6804E+06
   2882      1     32     28      0.9183E-01      0.6804E+06
   2883      1     32     29      0.8132E-01      0.6804E+06
   2884      1     32     30      0.6722E-01      0.6804E+06
   2885      1     32     31      0.4008E-01      0.6804E+06
   2886      1     32     32      0.5005E-02      0.6804E+06
   2887      1     32     59     -0.1228          0.6804E+06
   2888      1     32     60     -0.1187          0.6804E+06
   2889      1     32     61     -0.1189          0.6804E+06
   2890      1     32     62     -0.1090          0.6804E+06
   2891      1     32     63     -0.1122          0.6804E+06
   2892      1     32     64     -0.1184          0.6804E+06
   2893      1     32     65     -0.1213          0.6804E+06
   2894      1     32     66     -0.1004          0.6804E+06
   2895      1     32     67     -0.8122E-01      0.6804E+06
   2896      1     32     68     -0.6775E-01      0.6804E+06
   2897      1     32     69     -0.5838E-01      0.6804E+06
   2898      1     32     70       0.000          0.6804E+06
   2899      1     32     71       0.000          0.6804E+06
   2900      1     32     72       0.000          0.6804E+06
   2901      1     32     73       0.000          0.6804E+06
   2902      1     32     74       0.000          0.6804E+06
   2903      1     32     75       0.000          0.6804E+06
   2904      1     32     76       0.000          0.6804E+06
   2905      1     32     77       0.000          0.6804E+06
   2906      1     32     78       0.000          0.6804E+06
   2907      1     32     79       0.000          0.6804E+06
   2908      1     32     80       0.000          0.6804E+06
   2909      1     32     81       0.000          0.6804E+06
   2910      1     32     82      0.1953E-01      0.6804E+06
   2911      1     32     83      0.3269E-01      0.6804E+06
   2912      1     32     84      0.4489E-01      0.6804E+06
   2913      1     32     85      0.5309E-01      0.6804E+06
   2914      1     32     86      0.5995E-01      0.6804E+06
   2915      1     32     87      0.6416E-01      0.6804E+06
   2916      1     32     88      0.6654E-01      0.6804E+06
   2917      1     32     89      0.6828E-01      0.6804E+06
   2918      1     32     90      0.6913E-01      0.6804E+06
   2919      1     32     91      0.6949E-01      0.6804E+06
   2920      1     32     92      0.6939E-01      0.6804E+06
   2921      1     32     93      0.6886E-01      0.6804E+06
   2922      1     32     94      0.6782E-01      0.6804E+06
   2923      1     32     95      0.6661E-01      0.6804E+06
   2924      1     32     96      0.6550E-01      0.6804E+06
   2925      1     32     97      0.6456E-01      0.6804E+06
   2926      1     32     98      0.6433E-01      0.6804E+06
   2927      1     32     99      0.6422E-01      0.6804E+06
   2928      1     32    100      0.6391E-01      0.6804E+06
   2929      1     33      1      0.5810          0.6804E+06
   2930      1     33      2      0.5620          0.6804E+06
   2931      1     33      3      0.5437          0.6804E+06
   2932      1     33      4      0.5213          0.6804E+06
   2933      1     33      5      0.4973          0.6804E+06
   2934      1     33      6      0.4755          0.6804E+06
   2935      1     33      7      0.4501          0.6804E+06
   2936      1     33      8      0.4234          0.6804E+06
   2937      1     33      9      0.3986          0.6804E+06
   2938      1     33     10      0.3684          0.6804E+06
   2939      1     33     11      0.3403          0.6804E+06
   2940      1     33     12      0.3068          0.6804E+06
   2941      1     33     13      0.2724          0.6804E+06
   2942      1     33     14      0.2419          0.6804E+06
   2943      1     33     15      0.2067          0.6804E+06
   2944      1     33     16      0.1764          0.6804E+06
   2945      1     33     17      0.1449          0.6804E+06
   2946      1     33     18      0.1216          0.6804E+06
   2947      1     33     19      0.1147          0.6804E+06
   2948      1     33     20      0.1135          0.6804E+06
   2949      1     33     21      0.1152          0.6804E+06
   2950      1     33     22      0.1171          0.6804E+06
   2951      1     33     23      0.1176          0.6804E+06
   2952      1     33     24      0.1164          0.6804E+06
   2953      1     33     25      0.1139          0.6804E+06
   2954      1     33     26      0.1104          0.6804E+06
   2955      1     33     27      0.1059          0.6804E+06
   2956      1     33     28      0.9817E-01      0.6804E+06
   2957      1     33     29      0.8677E-01      0.6804E+06
   2958      1     33     30      0.7194E-01      0.6804E+06
   2959      1     33     31      0.4361E-01      0.6804E+06
   2960      1     33     32      0.9645E-02      0.6804E+06
   2961      1     33     59     -0.1126          0.6804E+06
   2962      1     33     60     -0.1104          0.6804E+06
   2963      1     33     61     -0.1023          0.6804E+06
   2964      1     33     62     -0.8346E-01      0.6804E+06
   2965      1     33     63     -0.8191E-01      0.6804E+06
   2966      1     33     64     -0.8904E-01      0.6804E+06
   2967      1     33     65     -0.9325E-01      0.6804E+06
   2968      1     33     66     -0.8452E-01      0.6804E+06
   2969      1     33     67     -0.6535E-01      0.6804E+06
   2970      1     33     68       0.000          0.6804E+06
   2971      1     33     69       0.000          0.6804E+06
   2972      1     33     70       0.000          0.6804E+06
   2973      1     33     71       0.000          0.6804E+06
   2974      1     33     72       0.000          0.6804E+06
   2975      1     33     73       0.000          0.6804E+06
   2976      1     33     74       0.000          0.6804E+06
   2977      1     33     75       0.000          0.6804E+06
   2978      1     33     76       0.000          0.6804E+06
   2979      1     33     77       0.000          0.6804E+06
   2980      1     33     78       0.000          0.6804E+06
   2981      1     33     79       0.000          0.6804E+06
   2982      1     33     80       0.000          0.6804E+06
   2983      1     33     81      0.5161E-02      0.6804E+06
   2984      1     33     82      0.2407E-01      0.6804E+06
   2985      1     33     83      0.3661E-01      0.6804E+06
   2986      1     33     84      0.4812E-01      0.6804E+06
   2987      1     33     85      0.5586E-01      0.6804E+06
   2988      1     33     86      0.6210E-01      0.6804E+06
   2989      1     33     87      0.6533E-01      0.6804E+06
   2990      1     33     88      0.6699E-01      0.6804E+06
   2991      1     33     89      0.6828E-01      0.6804E+06
   2992      1     33     90      0.6901E-01      0.6804E+06
   2993      1     33     91      0.6930E-01      0.6804E+06
   2994      1     33     92      0.6924E-01      0.6804E+06
   2995      1     33     93      0.6885E-01      0.6804E+06
   2996      1     33     94      0.6800E-01      0.6804E+06
   2997      1     33     95      0.6681E-01      0.6804E+06
   2998      1     33     96      0.6583E-01      0.6804E+06
   2999      1     33     97      0.6498E-01      0.6804E+06
   3000      1     33     98      0.6456E-01      0.6804E+06
   3001      1     33     99      0.6449E-01      0.6804E+06
   3002      1     33    100      0.6419E-01      0.6804E+06
   3003      1     34      1      0.5850          0.6804E+06
   3004      1     34      2      0.5644          0.6804E+06
   3005      1     34      3      0.5447          0.6804E+06
   3006      1     34      4      0.5207          0.6804E+06
   3007      1     34      5      0.4952          0.6804E+06
   3008      1     34      6      0.4723          0.6804E+06
   3009      1     34      7      0.4469          0.6804E+06
   3010      1     34      8      0.4209          0.6804E+06
   3011      1     34      9      0.3972          0.6804E+06
   3012      1     34     10      0.3685          0.6804E+06
   3013      1     34     11      0.3417          0.6804E+06
   3014      1     34     12      0.3096          0.6804E+06
   3015      1     34     13      0.2758          0.6804E+06
   3016      1     34     14      0.2450          0.6804E+06
   3017      1     34     15      0.2093          0.6804E+06
   3018      1     34     16      0.1789          0.6804E+06
   3019      1     34     17      0.1476          0.6804E+06
   3020      1     34     18      0.1252          0.6804E+06
   3021      1     34     19      0.1181          0.6804E+06
   3022      1     34     20      0.1171          0.6804E+06
   3023      1     34     21      0.1198          0.6804E+06
   3024      1     34     22      0.1228          0.6804E+06
   3025      1     34     23      0.1239          0.6804E+06
   3026      1     34     24      0.1226          0.6804E+06
   3027      1     34     25      0.1193          0.6804E+06
   3028      1     34     26      0.1146          0.6804E+06
   3029      1     34     27      0.1096          0.6804E+06
   3030      1     34     28      0.1010          0.6804E+06
   3031      1     34     29      0.8853E-01      0.6804E+06
   3032      1     34     30      0.7289E-01      0.6804E+06
   3033      1     34     31      0.4527E-01      0.6804E+06
   3034      1     34     32      0.1356E-01      0.6804E+06
   3035      1     34     58     -0.9494E-01      0.6804E+06
   3036      1     34     59     -0.9613E-01      0.6804E+06
   3037      1     34     60     -0.8755E-01      0.6804E+06
   3038      1     34     61     -0.7797E-01      0.6804E+06
   3039      1     34     62     -0.6027E-01      0.6804E+06
   3040      1     34     63     -0.5935E-01      0.6804E+06
   3041      1     34     64     -0.5738E-01      0.6804E+06
   3042      1     34     65     -0.5644E-01      0.6804E+06
   3043      1     34     66       0.000          0.6804E+06
   3044      1     34     67       0.000          0.6804E+06
   3045      1     34     68       0.000          0.6804E+06
   3046      1     34     69       0.000          0.6804E+06
   3047      1     34     70       0.000          0.6804E+06
   3048      1     34     71       0.000          0.6804E+06
   3049      1     34     72       0.000          0.6804E+06
   3050      1     34     73       0.000          0.6804E+06
   3051      1     34     74       0.000          0.6804E+06
   3052      1     34     75       0.000          0.6804E+06
   3053      1     34     76       0.000          0.6804E+06
   3054      1     34     77       0.000          0.6804E+06
   3055      1     34     78       0.000          0.6804E+06
   3056      1     34     79       0.000          0.6804E+06
   3057      1     34     80       0.000          0.6804E+06
   3058      1     34     81      0.1513E-01      0.6804E+06
   3059      1     34     82      0.2989E-01      0.6804E+06
   3060      1     34     83      0.4100E-01      0.6804E+06
   3061      1     34     84      0.5127E-01      0.6804E+06
   3062      1     34     85      0.5804E-01      0.6804E+06
   3063      1     34     86      0.6300E-01      0.6804E+06
   3064      1     34     87      0.6518E-01      0.6804E+06
   3065      1     34     88      0.6624E-01      0.6804E+06
   3066      1     34     89      0.6742E-01      0.6804E+06
   3067      1     34     90      0.6844E-01      0.6804E+06
   3068      1     34     91      0.6885E-01      0.6804E+06
   3069      1     34     92      0.6879E-01      0.6804E+06
   3070      1     34     93      0.6841E-01      0.6804E+06
   3071      1     34     94      0.6779E-01      0.6804E+06
   3072      1     34     95      0.6675E-01      0.6804E+06
   3073      1     34     96      0.6586E-01      0.6804E+06
   3074      1     34     97      0.6507E-01      0.6804E+06
   3075      1     34     98      0.6465E-01      0.6804E+06
   3076      1     34     99      0.6448E-01      0.6804E+06
   3077      1     34    100      0.6432E-01      0.6804E+06
   3078      1     35      1      0.5898          0.6804E+06
   3079      1     35      2      0.5675          0.6804E+06
   3080      1     35      3      0.5464          0.6804E+06
   3081      1     35      4      0.5210          0.6804E+06
   3082      1     35      5      0.4946          0.6804E+06
   3083      1     35      6      0.4713          0.6804E+06
   3084      1     35      7      0.4457          0.6804E+06
   3085      1     35      8      0.4202          0.6804E+06
   3086      1     35      9      0.3974          0.6804E+06
   3087      1     35     10      0.3702          0.6804E+06
   3088      1     35     11      0.3452          0.6804E+06
   3089      1     35     12      0.3147          0.6804E+06
   3090      1     35     13      0.2817          0.6804E+06
   3091      1     35     14      0.2509          0.6804E+06
   3092      1     35     15      0.2151          0.6804E+06
   3093      1     35     16      0.1847          0.6804E+06
   3094      1     35     17      0.1539          0.6804E+06
   3095      1     35     18      0.1323          0.6804E+06
   3096      1     35     19      0.1239          0.6804E+06
   3097      1     35     20      0.1219          0.6804E+06
   3098      1     35     21      0.1245          0.6804E+06
   3099      1     35     22      0.1281          0.6804E+06
   3100      1     35     23      0.1294          0.6804E+06
   3101      1     35     24      0.1270          0.6804E+06
   3102      1     35     25      0.1216          0.6804E+06
   3103      1     35     26      0.1152          0.6804E+06
   3104      1     35     27      0.1093          0.6804E+06
   3105      1     35     28      0.9887E-01      0.6804E+06
   3106      1     35     29      0.8436E-01      0.6804E+06
   3107      1     35     30      0.6686E-01      0.6804E+06
   3108      1     35     31      0.3778E-01      0.6804E+06
   3109      1     35     58     -0.7246E-01      0.6804E+06
   3110      1     35     59     -0.7209E-01      0.6804E+06
   3111      1     35     60     -0.6612E-01      0.6804E+06
   3112      1     35     61     -0.6193E-01      0.6804E+06
   3113      1     35     62     -0.5152E-01      0.6804E+06
   3114      1     35     63     -0.5240E-01      0.6804E+06
   3115      1     35     64       0.000          0.6804E+06
   3116      1     35     65       0.000          0.6804E+06
   3117      1     35     66       0.000          0.6804E+06
   3118      1     35     67       0.000          0.6804E+06
   3119      1     35     68       0.000          0.6804E+06
   3120      1     35     69       0.000          0.6804E+06
   3121      1     35     70       0.000          0.6804E+06
   3122      1     35     71       0.000          0.6804E+06
   3123      1     35     72       0.000          0.6804E+06
   3124      1     35     73       0.000          0.6804E+06
   3125      1     35     74       0.000          0.6804E+06
   3126      1     35     75       0.000          0.6804E+06
   3127      1     35     76       0.000          0.6804E+06
   3128      1     35     77       0.000          0.6804E+06
   3129      1     35     78       0.000          0.6804E+06
   3130      1     35     79       0.000          0.6804E+06
   3131      1     35     80      0.2748E-02      0.6804E+06
   3132      1     35     81      0.2048E-01      0.6804E+06
   3133      1     35     82      0.3463E-01      0.6804E+06
   3134      1     35     83      0.4484E-01      0.6804E+06
   3135      1     35     84      0.5406E-01      0.6804E+06
   3136      1     35     85      0.5989E-01      0.6804E+06
   3137      1     35     86      0.6347E-01      0.6804E+06
   3138      1     35     87      0.6468E-01      0.6804E+06
   3139      1     35     88      0.6529E-01      0.6804E+06
   3140      1     35     89      0.6646E-01      0.6804E+06
   3141      1     35     90      0.6766E-01      0.6804E+06
   3142      1     35     91      0.6808E-01      0.6804E+06
   3143      1     35     92      0.6808E-01      0.6804E+06
   3144      1     35     93      0.6782E-01      0.6804E+06
   3145      1     35     94      0.6721E-01      0.6804E+06
   3146      1     35     95      0.6632E-01      0.6804E+06
   3147      1     35     96      0.6559E-01      0.6804E+06
   3148      1     35     97      0.6492E-01      0.6804E+06
   3149      1     35     98      0.6446E-01      0.6804E+06
   3150      1     35     99      0.6425E-01      0.6804E+06
   3151      1     35    100      0.6413E-01      0.6804E+06
   3152      1     36      1      0.5945          0.6804E+06
   3153      1     36      2      0.5707          0.6804E+06
   3154      1     36      3      0.5485          0.6804E+06
   3155      1     36      4      0.5221          0.6804E+06
   3156      1     36      5      0.4951          0.6804E+06
   3157      1     36      6      0.4717          0.6804E+06
   3158      1     36      7      0.4458          0.6804E+06
   3159      1     36      8      0.4205          0.6804E+06
   3160      1     36      9      0.3983          0.6804E+06
   3161      1     36     10      0.3725          0.6804E+06
   3162      1     36     11      0.3492          0.6804E+06
   3163      1     36     12      0.3208          0.6804E+06
   3164      1     36     13      0.2890          0.6804E+06
   3165      1     36     14      0.2581          0.6804E+06
   3166      1     36     15      0.2218          0.6804E+06
   3167      1     36     16      0.1908          0.6804E+06
   3168      1     36     17      0.1589          0.6804E+06
   3169      1     36     18      0.1364          0.6804E+06
   3170      1     36     19      0.1278          0.6804E+06
   3171      1     36     20      0.1253          0.6804E+06
   3172      1     36     21      0.1273          0.6804E+06
   3173      1     36     22      0.1305          0.6804E+06
   3174      1     36     23      0.1314          0.6804E+06
   3175      1     36     24      0.1276          0.6804E+06
   3176      1     36     25      0.1201          0.6804E+06
   3177      1     36     26      0.1124          0.6804E+06
   3178      1     36     27      0.1054          0.6804E+06
   3179      1     36     28      0.9293E-01      0.6804E+06
   3180      1     36     29      0.7565E-01      0.6804E+06
   3181      1     36     30      0.5505E-01      0.6804E+06
   3182      1     36     31      0.2168E-01      0.6804E+06
   3183      1     36     58     -0.5577E-01      0.6804E+06
   3184      1     36     59     -0.5434E-01      0.6804E+06
   3185      1     36     60     -0.5409E-01      0.6804E+06
   3186      1     36     61     -0.5361E-01      0.6804E+06
   3187      1     36     62       0.000          0.6804E+06
   3188      1     36     63       0.000          0.6804E+06
   3189      1     36     64       0.000          0.6804E+06
   3190      1     36     65       0.000          0.6804E+06
   3191      1     36     66       0.000          0.6804E+06
   3192      1     36     67       0.000          0.6804E+06
   3193      1     36     68       0.000          0.6804E+06
   3194      1     36     69       0.000          0.6804E+06
   3195      1     36     70       0.000          0.6804E+06
   3196      1     36     71       0.000          0.6804E+06
   3197      1     36     72       0.000          0.6804E+06
   3198      1     36     73       0.000          0.6804E+06
   3199      1     36     74       0.000          0.6804E+06
   3200      1     36     75       0.000          0.6804E+06
   3201      1     36     76       0.000          0.6804E+06
   3202      1     36     77       0.000          0.6804E+06
   3203      1     36     78       0.000          0.6804E+06
   3204      1     36     79       0.000          0.6804E+06
   3205      1     36     80      0.1034E-01      0.6804E+06
   3206      1     36     81      0.2546E-01      0.6804E+06
   3207      1     36     82      0.3828E-01      0.6804E+06
   3208      1     36     83      0.4767E-01      0.6804E+06
   3209      1     36     84      0.5630E-01      0.6804E+06
   3210      1     36     85      0.6163E-01      0.6804E+06
   3211      1     36     86      0.6422E-01      0.6804E+06
   3212      1     36     87      0.6472E-01      0.6804E+06
   3213      1     36     88      0.6492E-01      0.6804E+06
   3214      1     36     89      0.6586E-01      0.6804E+06
   3215      1     36     90      0.6691E-01      0.6804E+06
   3216      1     36     91      0.6726E-01      0.6804E+06
   3217      1     36     92      0.6731E-01      0.6804E+06
   3218      1     36     93      0.6720E-01      0.6804E+06
   3219      1     36     94      0.6656E-01      0.6804E+06
   3220      1     36     95      0.6579E-01      0.6804E+06
   3221      1     36     96      0.6518E-01      0.6804E+06
   3222      1     36     97      0.6460E-01      0.6804E+06
   3223      1     36     98      0.6422E-01      0.6804E+06
   3224      1     36     99      0.6396E-01      0.6804E+06
   3225      1     36    100      0.6380E-01      0.6804E+06
   3226      1     37      1      0.6002          0.6804E+06
   3227      1     37      2      0.5746          0.6804E+06
   3228      1     37      3      0.5510          0.6804E+06
   3229      1     37      4      0.5234          0.6804E+06
   3230      1     37      5      0.4958          0.6804E+06
   3231      1     37      6      0.4722          0.6804E+06
   3232      1     37      7      0.4461          0.6804E+06
   3233      1     37      8      0.4209          0.6804E+06
   3234      1     37      9      0.3993          0.6804E+06
   3235      1     37     10      0.3749          0.6804E+06
   3236      1     37     11      0.3536          0.6804E+06
   3237      1     37     12      0.3282          0.6804E+06
   3238      1     37     13      0.2989          0.6804E+06
   3239      1     37     14      0.2670          0.6804E+06
   3240      1     37     15      0.2302          0.6804E+06
   3241      1     37     16      0.1990          0.6804E+06
   3242      1     37     17      0.1670          0.6804E+06
   3243      1     37     18      0.1434          0.6804E+06
   3244      1     37     19      0.1327          0.6804E+06
   3245      1     37     20      0.1274          0.6804E+06
   3246      1     37     21      0.1264          0.6804E+06
   3247      1     37     22      0.1275          0.6804E+06
   3248      1     37     23      0.1263          0.6804E+06
   3249      1     37     24      0.1215          0.6804E+06
   3250      1     37     25      0.1131          0.6804E+06
   3251      1     37     26      0.1041          0.6804E+06
   3252      1     37     27      0.9534E-01      0.6804E+06
   3253      1     37     28      0.8062E-01      0.6804E+06
   3254      1     37     29      0.5971E-01      0.6804E+06
   3255      1     37     30      0.3618E-01      0.6804E+06
   3256      1     37     58     -0.5410E-01      0.6804E+06
   3257      1     37     59     -0.5313E-01      0.6804E+06
   3258      1     37     60     -0.5294E-01      0.6804E+06
   3259      1     37     61     -0.5339E-01      0.6804E+06
   3260      1     37     62       0.000          0.6804E+06
   3261      1     37     63       0.000          0.6804E+06
   3262      1     37     64       0.000          0.6804E+06
   3263      1     37     65       0.000          0.6804E+06
   3264      1     37     66       0.000          0.6804E+06
   3265      1     37     67       0.000          0.6804E+06
   3266      1     37     68       0.000          0.6804E+06
   3267      1     37     69       0.000          0.6804E+06
   3268      1     37     70       0.000          0.6804E+06
   3269      1     37     71       0.000          0.6804E+06
   3270      1     37     72       0.000          0.6804E+06
   3271      1     37     73       0.000          0.6804E+06
   3272      1     37     74       0.000          0.6804E+06
   3273      1     37     75       0.000          0.6804E+06
   3274      1     37     76       0.000          0.6804E+06
   3275      1     37     77       0.000          0.6804E+06
   3276      1     37     78       0.000          0.6804E+06
   3277      1     37     79      0.3399E-03      0.6804E+06
   3278      1     37     80      0.1354E-01      0.6804E+06
   3279      1     37     81      0.2884E-01      0.6804E+06
   3280      1     37     82      0.4122E-01      0.6804E+06
   3281      1     37     83      0.5037E-01      0.6804E+06
   3282      1     37     84      0.5852E-01      0.6804E+06
   3283      1     37     85      0.6299E-01      0.6804E+06
   3284      1     37     86      0.6497E-01      0.6804E+06
   3285      1     37     87      0.6523E-01      0.6804E+06
   3286      1     37     88      0.6514E-01      0.6804E+06
   3287      1     37     89      0.6546E-01      0.6804E+06
   3288      1     37     90      0.6608E-01      0.6804E+06
   3289      1     37     91      0.6635E-01      0.6804E+06
   3290      1     37     92      0.6645E-01      0.6804E+06
   3291      1     37     93      0.6641E-01      0.6804E+06
   3292      1     37     94      0.6582E-01      0.6804E+06
   3293      1     37     95      0.6519E-01      0.6804E+06
   3294      1     37     96      0.6463E-01      0.6804E+06
   3295      1     37     97      0.6406E-01      0.6804E+06
   3296      1     37     98      0.6387E-01      0.6804E+06
   3297      1     37     99      0.6359E-01      0.6804E+06
   3298      1     37    100      0.6340E-01      0.6804E+06
   3299      1     38      1      0.6058          0.6804E+06
   3300      1     38      2      0.5783          0.6804E+06
   3301      1     38      3      0.5533          0.6804E+06
   3302      1     38      4      0.5242          0.6804E+06
   3303      1     38      5      0.4957          0.6804E+06
   3304      1     38      6      0.4716          0.6804E+06
   3305      1     38      7      0.4454          0.6804E+06
   3306      1     38      8      0.4204          0.6804E+06
   3307      1     38      9      0.3995          0.6804E+06
   3308      1     38     10      0.3761          0.6804E+06
   3309      1     38     11      0.3561          0.6804E+06
   3310      1     38     12      0.3322          0.6804E+06
   3311      1     38     13      0.3046          0.6804E+06
   3312      1     38     14      0.2735          0.6804E+06
   3313      1     38     15      0.2376          0.6804E+06
   3314      1     38     16      0.2076          0.6804E+06
   3315      1     38     17      0.1767          0.6804E+06
   3316      1     38     18      0.1523          0.6804E+06
   3317      1     38     19      0.1376          0.6804E+06
   3318      1     38     20      0.1266          0.6804E+06
   3319      1     38     21      0.1211          0.6804E+06
   3320      1     38     22      0.1204          0.6804E+06
   3321      1     38     23      0.1171          0.6804E+06
   3322      1     38     24      0.1110          0.6804E+06
   3323      1     38     25      0.1016          0.6804E+06
   3324      1     38     26      0.9116E-01      0.6804E+06
   3325      1     38     27      0.8044E-01      0.6804E+06
   3326      1     38     28      0.6291E-01      0.6804E+06
   3327      1     38     29      0.3824E-01      0.6804E+06
   3328      1     38     58     -0.5216E-01      0.6804E+06
   3329      1     38     59     -0.5327E-01      0.6804E+06
   3330      1     38     60     -0.5256E-01      0.6804E+06
   3331      1     38     61     -0.5299E-01      0.6804E+06
   3332      1     38     62       0.000          0.6804E+06
   3333      1     38     63       0.000          0.6804E+06
   3334      1     38     64       0.000          0.6804E+06
   3335      1     38     65       0.000          0.6804E+06
   3336      1     38     66       0.000          0.6804E+06
   3337      1     38     67       0.000          0.6804E+06
   3338      1     38     68       0.000          0.6804E+06
   3339      1     38     69       0.000          0.6804E+06
   3340      1     38     70       0.000          0.6804E+06
   3341      1     38     71       0.000          0.6804E+06
   3342      1     38     72       0.000          0.6804E+06
   3343      1     38     73       0.000          0.6804E+06
   3344      1     38     74       0.000          0.6804E+06
   3345      1     38     75       0.000          0.6804E+06
   3346      1     38     76       0.000          0.6804E+06
   3347      1     38     77       0.000          0.6804E+06
   3348      1     38     78       0.000          0.6804E+06
   3349      1     38     79      0.2886E-02      0.6804E+06
   3350      1     38     80      0.1388E-01      0.6804E+06
   3351      1     38     81      0.2917E-01      0.6804E+06
   3352      1     38     82      0.4258E-01      0.6804E+06
   3353      1     38     83      0.5246E-01      0.6804E+06
   3354      1     38     84      0.6075E-01      0.6804E+06
   3355      1     38     85      0.6428E-01      0.6804E+06
   3356      1     38     86      0.6550E-01      0.6804E+06
   3357      1     38     87      0.6531E-01      0.6804E+06
   3358      1     38     88      0.6494E-01      0.6804E+06
   3359      1     38     89      0.6507E-01      0.6804E+06
   3360      1     38     90      0.6544E-01      0.6804E+06
   3361      1     38     91      0.6572E-01      0.6804E+06
   3362      1     38     92      0.6587E-01      0.6804E+06
   3363      1     38     93      0.6578E-01      0.6804E+06
   3364      1     38     94      0.6534E-01      0.6804E+06
   3365      1     38     95      0.6474E-01      0.6804E+06
   3366      1     38     96      0.6417E-01      0.6804E+06
   3367      1     38     97      0.6358E-01      0.6804E+06
   3368      1     38     98      0.6338E-01      0.6804E+06
   3369      1     38     99      0.6326E-01      0.6804E+06
   3370      1     38    100      0.6322E-01      0.6804E+06
   3371      1     39      1      0.6106          0.6804E+06
   3372      1     39      2      0.5812          0.6804E+06
   3373      1     39      3      0.5546          0.6804E+06
   3374      1     39      4      0.5241          0.6804E+06
   3375      1     39      5      0.4944          0.6804E+06
   3376      1     39      6      0.4698          0.6804E+06
   3377      1     39      7      0.4435          0.6804E+06
   3378      1     39      8      0.4189          0.6804E+06
   3379      1     39      9      0.3984          0.6804E+06
   3380      1     39     10      0.3756          0.6804E+06
   3381      1     39     11      0.3558          0.6804E+06
   3382      1     39     12      0.3318          0.6804E+06
   3383      1     39     13      0.3043          0.6804E+06
   3384      1     39     14      0.2759          0.6804E+06
   3385      1     39     15      0.2425          0.6804E+06
   3386      1     39     16      0.2142          0.6804E+06
   3387      1     39     17      0.1847          0.6804E+06
   3388      1     39     18      0.1597          0.6804E+06
   3389      1     39     19      0.1401          0.6804E+06
   3390      1     39     20      0.1221          0.6804E+06
   3391      1     39     21      0.1107          0.6804E+06
   3392      1     39     22      0.1073          0.6804E+06
   3393      1     39     23      0.1032          0.6804E+06
   3394      1     39     24      0.9753E-01      0.6804E+06
   3395      1     39     25      0.8892E-01      0.6804E+06
   3396      1     39     26      0.7796E-01      0.6804E+06
   3397      1     39     27      0.6500E-01      0.6804E+06
   3398      1     39     28      0.4355E-01      0.6804E+06
   3399      1     39     29      0.1509E-01      0.6804E+06
   3400      1     39     58     -0.5574E-01      0.6804E+06
   3401      1     39     59     -0.5255E-01      0.6804E+06
   3402      1     39     60     -0.5170E-01      0.6804E+06
   3403      1     39     61     -0.5034E-01      0.6804E+06
   3404      1     39     62       0.000          0.6804E+06
   3405      1     39     63       0.000          0.6804E+06
   3406      1     39     64       0.000          0.6804E+06
   3407      1     39     65       0.000          0.6804E+06
   3408      1     39     66       0.000          0.6804E+06
   3409      1     39     67       0.000          0.6804E+06
   3410      1     39     68       0.000          0.6804E+06
   3411      1     39     69       0.000          0.6804E+06
   3412      1     39     70       0.000          0.6804E+06
   3413      1     39     71       0.000          0.6804E+06
   3414      1     39     72       0.000          0.6804E+06
   3415      1     39     73       0.000          0.6804E+06
   3416      1     39     74       0.000          0.6804E+06
   3417      1     39     75       0.000          0.6804E+06
   3418      1     39     76       0.000          0.6804E+06
   3419      1     39     77       0.000          0.6804E+06
   3420      1     39     78       0.000          0.6804E+06
   3421      1     39     79       0.000          0.6804E+06
   3422      1     39     80      0.1066E-01      0.6804E+06
   3423      1     39     81      0.2790E-01      0.6804E+06
   3424      1     39     82      0.4297E-01      0.6804E+06
   3425      1     39     83      0.5376E-01      0.6804E+06
   3426      1     39     84      0.6223E-01      0.6804E+06
   3427      1     39     85      0.6521E-01      0.6804E+06
   3428      1     39     86      0.6591E-01      0.6804E+06
   3429      1     39     87      0.6528E-01      0.6804E+06
   3430      1     39     88      0.6462E-01      0.6804E+06
   3431      1     39     89      0.6478E-01      0.6804E+06
   3432      1     39     90      0.6514E-01      0.6804E+06
   3433      1     39     91      0.6542E-01      0.6804E+06
   3434      1     39     92      0.6554E-01      0.6804E+06
   3435      1     39     93      0.6535E-01      0.6804E+06
   3436      1     39     94      0.6482E-01      0.6804E+06
   3437      1     39     95      0.6430E-01      0.6804E+06
   3438      1     39     96      0.6387E-01      0.6804E+06
   3439      1     39     97      0.6341E-01      0.6804E+06
   3440      1     39     98      0.6321E-01      0.6804E+06
   3441      1     39     99      0.6311E-01      0.6804E+06
   3442      1     39    100      0.6326E-01      0.6804E+06
   3443      1     40      1      0.6157          0.6804E+06
   3444      1     40      2      0.5839          0.6804E+06
   3445      1     40      3      0.5554          0.6804E+06
   3446      1     40      4      0.5228          0.6804E+06
   3447      1     40      5      0.4915          0.6804E+06
   3448      1     40      6      0.4663          0.6804E+06
   3449      1     40      7      0.4399          0.6804E+06
   3450      1     40      8      0.4156          0.6804E+06
   3451      1     40      9      0.3957          0.6804E+06
   3452      1     40     10      0.3736          0.6804E+06
   3453      1     40     11      0.3539          0.6804E+06
   3454      1     40     12      0.3300          0.6804E+06
   3455      1     40     13      0.3033          0.6804E+06
   3456      1     40     14      0.2770          0.6804E+06
   3457      1     40     15      0.2458          0.6804E+06
   3458      1     40     16      0.2190          0.6804E+06
   3459      1     40     17      0.1901          0.6804E+06
   3460      1     40     18      0.1639          0.6804E+06
   3461      1     40     19      0.1386          0.6804E+06
   3462      1     40     20      0.1114          0.6804E+06
   3463      1     40     21      0.9120E-01      0.6804E+06
   3464      1     40     22      0.8318E-01      0.6804E+06
   3465      1     40     23      0.8053E-01      0.6804E+06
   3466      1     40     24      0.7854E-01      0.6804E+06
   3467      1     40     25      0.7347E-01      0.6804E+06
   3468      1     40     26      0.6318E-01      0.6804E+06
   3469      1     40     27      0.4816E-01      0.6804E+06
   3470      1     40     28      0.2003E-01      0.6804E+06
   3471      1     40     58     -0.5780E-01      0.6804E+06
   3472      1     40     59     -0.5226E-01      0.6804E+06
   3473      1     40     60     -0.4942E-01      0.6804E+06
   3474      1     40     61       0.000          0.6804E+06
   3475      1     40     62       0.000          0.6804E+06
   3476      1     40     63       0.000          0.6804E+06
   3477      1     40     64       0.000          0.6804E+06
   3478      1     40     65       0.000          0.6804E+06
   3479      1     40     66       0.000          0.6804E+06
   3480      1     40     67       0.000          0.6804E+06
   3481      1     40     68       0.000          0.6804E+06
   3482      1     40     69       0.000          0.6804E+06
   3483      1     40     70       0.000          0.6804E+06
   3484      1     40     71       0.000          0.6804E+06
   3485      1     40     72       0.000          0.6804E+06
   3486      1     40     73       0.000          0.6804E+06
   3487      1     40     74       0.000          0.6804E+06
   3488      1     40     75       0.000          0.6804E+06
   3489      1     40     76       0.000          0.6804E+06
   3490      1     40     77       0.000          0.6804E+06
   3491      1     40     78       0.000          0.6804E+06
   3492      1     40     79       0.000          0.6804E+06
   3493      1     40     80      0.4358E-02      0.6804E+06
   3494      1     40     81      0.2614E-01      0.6804E+06
   3495      1     40     82      0.4355E-01      0.6804E+06
   3496      1     40     83      0.5502E-01      0.6804E+06
   3497      1     40     84      0.6320E-01      0.6804E+06
   3498      1     40     85      0.6600E-01      0.6804E+06
   3499      1     40     86      0.6648E-01      0.6804E+06
   3500      1     40     87      0.6553E-01      0.6804E+06
   3501      1     40     88      0.6460E-01      0.6804E+06
   3502      1     40     89      0.6468E-01      0.6804E+06
   3503      1     40     90      0.6496E-01      0.6804E+06
   3504      1     40     91      0.6516E-01      0.6804E+06
   3505      1     40     92      0.6512E-01      0.6804E+06
   3506      1     40     93      0.6470E-01      0.6804E+06
   3507      1     40     94      0.6424E-01      0.6804E+06
   3508      1     40     95      0.6388E-01      0.6804E+06
   3509      1     40     96      0.6362E-01      0.6804E+06
   3510      1     40     97      0.6335E-01      0.6804E+06
   3511      1     40     98      0.6319E-01      0.6804E+06
   3512      1     40     99      0.6333E-01      0.6804E+06
   3513      1     40    100      0.6359E-01      0.6804E+06
   3514      1     41      1      0.6200          0.6804E+06
   3515      1     41      2      0.5856          0.6804E+06
   3516      1     41      3      0.5551          0.6804E+06
   3517      1     41      4      0.5206          0.6804E+06
   3518      1     41      5      0.4879          0.6804E+06
   3519      1     41      6      0.4620          0.6804E+06
   3520      1     41      7      0.4355          0.6804E+06
   3521      1     41      8      0.4116          0.6804E+06
   3522      1     41      9      0.3922          0.6804E+06
   3523      1     41     10      0.3708          0.6804E+06
   3524      1     41     11      0.3518          0.6804E+06
   3525      1     41     12      0.3287          0.6804E+06
   3526      1     41     13      0.3028          0.6804E+06
   3527      1     41     14      0.2775          0.6804E+06
   3528      1     41     15      0.2472          0.6804E+06
   3529      1     41     16      0.2205          0.6804E+06
   3530      1     41     17      0.1905          0.6804E+06
   3531      1     41     18      0.1605          0.6804E+06
   3532      1     41     19      0.1316          0.6804E+06
   3533      1     41     20      0.9813E-01      0.6804E+06
   3534      1     41     21      0.6926E-01      0.6804E+06
   3535      1     41     22      0.5697E-01      0.6804E+06
   3536      1     41     23      0.5786E-01      0.6804E+06
   3537      1     41     24      0.6167E-01      0.6804E+06
   3538      1     41     25      0.6155E-01      0.6804E+06
   3539      1     41     26      0.5299E-01      0.6804E+06
   3540      1     41     27      0.3764E-01      0.6804E+06
   3541      1     41     28      0.4033E-02      0.6804E+06
   3542      1     41     58     -0.5797E-01      0.6804E+06
   3543      1     41     59     -0.5117E-01      0.6804E+06
   3544      1     41     60     -0.4610E-01      0.6804E+06
   3545      1     41     61       0.000          0.6804E+06
   3546      1     41     62       0.000          0.6804E+06
   3547      1     41     63       0.000          0.6804E+06
   3548      1     41     64       0.000          0.6804E+06
   3549      1     41     65       0.000          0.6804E+06
   3550      1     41     66       0.000          0.6804E+06
   3551      1     41     67       0.000          0.6804E+06
   3552      1     41     68       0.000          0.6804E+06
   3553      1     41     69       0.000          0.6804E+06
   3554      1     41     70       0.000          0.6804E+06
   3555      1     41     71       0.000          0.6804E+06
   3556      1     41     72       0.000          0.6804E+06
   3557      1     41     73       0.000          0.6804E+06
   3558      1     41     74       0.000          0.6804E+06
   3559      1     41     75       0.000          0.6804E+06
   3560      1     41     76       0.000          0.6804E+06
   3561      1     41     77       0.000          0.6804E+06
   3562      1     41     78       0.000          0.6804E+06
   3563      1     41     79       0.000          0.6804E+06
   3564      1     41     80      0.2738E-02      0.6804E+06
   3565      1     41     81      0.2637E-01      0.6804E+06
   3566      1     41     82      0.4534E-01      0.6804E+06
   3567      1     41     83      0.5728E-01      0.6804E+06
   3568      1     41     84      0.6478E-01      0.6804E+06
   3569      1     41     85      0.6705E-01      0.6804E+06
   3570      1     41     86      0.6728E-01      0.6804E+06
   3571      1     41     87      0.6635E-01      0.6804E+06
   3572      1     41     88      0.6540E-01      0.6804E+06
   3573      1     41     89      0.6501E-01      0.6804E+06
   3574      1     41     90      0.6488E-01      0.6804E+06
   3575      1     41     91      0.6482E-01      0.6804E+06
   3576      1     41     92      0.6455E-01      0.6804E+06
   3577      1     41     93      0.6397E-01      0.6804E+06
   3578      1     41     94      0.6378E-01      0.6804E+06
   3579      1     41     95      0.6361E-01      0.6804E+06
   3580      1     41     96      0.6342E-01      0.6804E+06
   3581      1     41     97      0.6326E-01      0.6804E+06
   3582      1     41     98      0.6311E-01      0.6804E+06
   3583      1     41     99      0.6343E-01      0.6804E+06
   3584      1     41    100      0.6384E-01      0.6804E+06
   3585      1     42      1      0.6243          0.6804E+06
   3586      1     42      2      0.5865          0.6804E+06
   3587      1     42      3      0.5534          0.6804E+06
   3588      1     42      4      0.5165          0.6804E+06
   3589      1     42      5      0.4823          0.6804E+06
   3590      1     42      6      0.4559          0.6804E+06
   3591      1     42      7      0.4292          0.6804E+06
   3592      1     42      8      0.4057          0.6804E+06
   3593      1     42      9      0.3871          0.6804E+06
   3594      1     42     10      0.3668          0.6804E+06
   3595      1     42     11      0.3489          0.6804E+06
   3596      1     42     12      0.3272          0.6804E+06
   3597      1     42     13      0.3023          0.6804E+06
   3598      1     42     14      0.2777          0.6804E+06
   3599      1     42     15      0.2479          0.6804E+06
   3600      1     42     16      0.2211          0.6804E+06
   3601      1     42     17      0.1897          0.6804E+06
   3602      1     42     18      0.1567          0.6804E+06
   3603      1     42     19      0.1257          0.6804E+06
   3604      1     42     20      0.8865E-01      0.6804E+06
   3605      1     42     21      0.5453E-01      0.6804E+06
   3606      1     42     22      0.3974E-01      0.6804E+06
   3607      1     42     23      0.4285E-01      0.6804E+06
   3608      1     42     24      0.5119E-01      0.6804E+06
   3609      1     42     25      0.5542E-01      0.6804E+06
   3610      1     42     26      0.4942E-01      0.6804E+06
   3611      1     42     27      0.3605E-01      0.6804E+06
   3612      1     42     28      0.5509E-02      0.6804E+06
   3613      1     42     57     -0.6526E-01      0.6804E+06
   3614      1     42     58     -0.5522E-01      0.6804E+06
   3615      1     42     59     -0.5115E-01      0.6804E+06
   3616      1     42     60     -0.4406E-01      0.6804E+06
   3617      1     42     61       0.000          0.6804E+06
   3618      1     42     62       0.000          0.6804E+06
   3619      1     42     63       0.000          0.6804E+06
   3620      1     42     64       0.000          0.6804E+06
   3621      1     42     65       0.000          0.6804E+06
   3622      1     42     66       0.000          0.6804E+06
   3623      1     42     67       0.000          0.6804E+06
   3624      1     42     68       0.000          0.6804E+06
   3625      1     42     69       0.000          0.6804E+06
   3626      1     42     70       0.000          0.6804E+06
   3627      1     42     71       0.000          0.6804E+06
   3628      1     42     72       0.000          0.6804E+06
   3629      1     42     73       0.000          0.6804E+06
   3630      1     42     74       0.000          0.6804E+06
   3631      1     42     75       0.000          0.6804E+06
   3632      1     42     76       0.000          0.6804E+06
   3633      1     42     77       0.000          0.6804E+06
   3634      1     42     78       0.000          0.6804E+06
   3635      1     42     79       0.000          0.6804E+06
   3636      1     42     80      0.6835E-02      0.6804E+06
   3637      1     42     81      0.2985E-01      0.6804E+06
   3638      1     42     82      0.4835E-01      0.6804E+06
   3639      1     42     83      0.5979E-01      0.6804E+06
   3640      1     42     84      0.6652E-01      0.6804E+06
   3641      1     42     85      0.6833E-01      0.6804E+06
   3642      1     42     86      0.6828E-01      0.6804E+06
   3643      1     42     87      0.6724E-01      0.6804E+06
   3644      1     42     88      0.6615E-01      0.6804E+06
   3645      1     42     89      0.6532E-01      0.6804E+06
   3646      1     42     90      0.6490E-01      0.6804E+06
   3647      1     42     91      0.6444E-01      0.6804E+06
   3648      1     42     92      0.6375E-01      0.6804E+06
   3649      1     42     93      0.6347E-01      0.6804E+06
   3650      1     42     94      0.6335E-01      0.6804E+06
   3651      1     42     95      0.6322E-01      0.6804E+06
   3652      1     42     96      0.6309E-01      0.6804E+06
   3653      1     42     97      0.6294E-01      0.6804E+06
   3654      1     42     98      0.6281E-01      0.6804E+06
   3655      1     42     99      0.6319E-01      0.6804E+06
   3656      1     42    100      0.6388E-01      0.6804E+06
   3657      1     43      1      0.6271          0.6804E+06
   3658      1     43      2      0.5860          0.6804E+06
   3659      1     43      3      0.5499          0.6804E+06
   3660      1     43      4      0.5102          0.6804E+06
   3661      1     43      5      0.4744          0.6804E+06
   3662      1     43      6      0.4474          0.6804E+06
   3663      1     43      7      0.4211          0.6804E+06
   3664      1     43      8      0.3985          0.6804E+06
   3665      1     43      9      0.3810          0.6804E+06
   3666      1     43     10      0.3620          0.6804E+06
   3667      1     43     11      0.3454          0.6804E+06
   3668      1     43     12      0.3250          0.6804E+06
   3669      1     43     13      0.3014          0.6804E+06
   3670      1     43     14      0.2777          0.6804E+06
   3671      1     43     15      0.2486          0.6804E+06
   3672      1     43     16      0.2218          0.6804E+06
   3673      1     43     17      0.1899          0.6804E+06
   3674      1     43     18      0.1560          0.6804E+06
   3675      1     43     19      0.1248          0.6804E+06
   3676      1     43     20      0.8877E-01      0.6804E+06
   3677      1     43     21      0.5680E-01      0.6804E+06
   3678      1     43     22      0.4287E-01      0.6804E+06
   3679      1     43     23      0.4420E-01      0.6804E+06
   3680      1     43     24      0.5142E-01      0.6804E+06
   3681      1     43     25      0.5615E-01      0.6804E+06
   3682      1     43     26      0.5316E-01      0.6804E+06
   3683      1     43     58     -0.5469E-01      0.6804E+06
   3684      1     43     59     -0.5139E-01      0.6804E+06
   3685      1     43     60       0.000          0.6804E+06
   3686      1     43     61       0.000          0.6804E+06
   3687      1     43     62       0.000          0.6804E+06
   3688      1     43     63       0.000          0.6804E+06
   3689      1     43     64       0.000          0.6804E+06
   3690      1     43     65       0.000          0.6804E+06
   3691      1     43     66       0.000          0.6804E+06
   3692      1     43     67       0.000          0.6804E+06
   3693      1     43     68       0.000          0.6804E+06
   3694      1     43     69       0.000          0.6804E+06
   3695      1     43     70       0.000          0.6804E+06
   3696      1     43     71       0.000          0.6804E+06
   3697      1     43     72       0.000          0.6804E+06
   3698      1     43     73       0.000          0.6804E+06
   3699      1     43     74       0.000          0.6804E+06
   3700      1     43     75       0.000          0.6804E+06
   3701      1     43     76       0.000          0.6804E+06
   3702      1     43     77       0.000          0.6804E+06
   3703      1     43     78       0.000          0.6804E+06
   3704      1     43     79       0.000          0.6804E+06
   3705      1     43     80      0.1676E-01      0.6804E+06
   3706      1     43     81      0.3708E-01      0.6804E+06
   3707      1     43     82      0.5298E-01      0.6804E+06
   3708      1     43     83      0.6277E-01      0.6804E+06
   3709      1     43     84      0.6843E-01      0.6804E+06
   3710      1     43     85      0.6982E-01      0.6804E+06
   3711      1     43     86      0.6933E-01      0.6804E+06
   3712      1     43     87      0.6783E-01      0.6804E+06
   3713      1     43     88      0.6638E-01      0.6804E+06
   3714      1     43     89      0.6507E-01      0.6804E+06
   3715      1     43     90      0.6442E-01      0.6804E+06
   3716      1     43     91      0.6399E-01      0.6804E+06
   3717      1     43     92      0.6350E-01      0.6804E+06
   3718      1     43     93      0.6326E-01      0.6804E+06
   3719      1     43     94      0.6309E-01      0.6804E+06
   3720      1     43     95      0.6287E-01      0.6804E+06
   3721      1     43     96      0.6266E-01      0.6804E+06
   3722      1     43     97      0.6267E-01      0.6804E+06
   3723      1     43     98      0.6299E-01      0.6804E+06
   3724      1     43     99      0.6362E-01      0.6804E+06
   3725      1     43    100      0.6436E-01      0.6804E+06
   3726      1     44      1      0.6289          0.6804E+06
   3727      1     44      2      0.5845          0.6804E+06
   3728      1     44      3      0.5454          0.6804E+06
   3729      1     44      4      0.5026          0.6804E+06
   3730      1     44      5      0.4648          0.6804E+06
   3731      1     44      6      0.4376          0.6804E+06
   3732      1     44      7      0.4120          0.6804E+06
   3733      1     44      8      0.3909          0.6804E+06
   3734      1     44      9      0.3748          0.6804E+06
   3735      1     44     10      0.3574          0.6804E+06
   3736      1     44     11      0.3419          0.6804E+06
   3737      1     44     12      0.3227          0.6804E+06
   3738      1     44     13      0.3002          0.6804E+06
   3739      1     44     14      0.2776          0.6804E+06
   3740      1     44     15      0.2495          0.6804E+06
   3741      1     44     16      0.2232          0.6804E+06
   3742      1     44     17      0.1919          0.6804E+06
   3743      1     44     18      0.1586          0.6804E+06
   3744      1     44     19      0.1286          0.6804E+06
   3745      1     44     20      0.9548E-01      0.6804E+06
   3746      1     44     21      0.6861E-01      0.6804E+06
   3747      1     44     22      0.5639E-01      0.6804E+06
   3748      1     44     23      0.5424E-01      0.6804E+06
   3749      1     44     24      0.5758E-01      0.6804E+06
   3750      1     44     25      0.6075E-01      0.6804E+06
   3751      1     44     58     -0.5545E-01      0.6804E+06
   3752      1     44     59     -0.5118E-01      0.6804E+06
   3753      1     44     60       0.000          0.6804E+06
   3754      1     44     61       0.000          0.6804E+06
   3755      1     44     62       0.000          0.6804E+06
   3756      1     44     63       0.000          0.6804E+06
   3757      1     44     64       0.000          0.6804E+06
   3758      1     44     65       0.000          0.6804E+06
   3759      1     44     66       0.000          0.6804E+06
   3760      1     44     67       0.000          0.6804E+06
   3761      1     44     68       0.000          0.6804E+06
   3762      1     44     69       0.000          0.6804E+06
   3763      1     44     70       0.000          0.6804E+06
   3764      1     44     71       0.000          0.6804E+06
   3765      1     44     72       0.000          0.6804E+06
   3766      1     44     73       0.000          0.6804E+06
   3767      1     44     74       0.000          0.6804E+06
   3768      1     44     75       0.000          0.6804E+06
   3769      1     44     76       0.000          0.6804E+06
   3770      1     44     77       0.000          0.6804E+06
   3771      1     44     78       0.000          0.6804E+06
   3772      1     44     79      0.9758E-02      0.6804E+06
   3773      1     44     80      0.2919E-01      0.6804E+06
   3774      1     44     81      0.4648E-01      0.6804E+06
   3775      1     44     82      0.5915E-01      0.6804E+06
   3776      1     44     83      0.6663E-01      0.6804E+06
   3777      1     44     84      0.7079E-01      0.6804E+06
   3778      1     44     85      0.7158E-01      0.6804E+06
   3779      1     44     86      0.7042E-01      0.6804E+06
   3780      1     44     87      0.6816E-01      0.6804E+06
   3781      1     44     88      0.6618E-01      0.6804E+06
   3782      1     44     89      0.6466E-01      0.6804E+06
   3783      1     44     90      0.6404E-01      0.6804E+06
   3784      1     44     91      0.6382E-01      0.6804E+06
   3785      1     44     92      0.6360E-01      0.6804E+06
   3786      1     44     93      0.6335E-01      0.6804E+06
   3787      1     44     94      0.6301E-01      0.6804E+06
   3788      1     44     95      0.6268E-01      0.6804E+06
   3789      1     44     96      0.6252E-01      0.6804E+06
   3790      1     44     97      0.6256E-01      0.6804E+06
   3791      1     44     98      0.6314E-01      0.6804E+06
   3792      1     44     99      0.6399E-01      0.6804E+06
   3793      1     44    100      0.6485E-01      0.6804E+06
   3794      1     45      1      0.6309          0.6804E+06
   3795      1     45      2      0.5825          0.6804E+06
   3796      1     45      3      0.5394          0.6804E+06
   3797      1     45      4      0.4919          0.6804E+06
   3798      1     45      5      0.4508          0.6804E+06
   3799      1     45      6      0.4237          0.6804E+06
   3800      1     45      7      0.4003          0.6804E+06
   3801      1     45      8      0.3816          0.6804E+06
   3802      1     45      9      0.3674          0.6804E+06
   3803      1     45     10      0.3522          0.6804E+06
   3804      1     45     11      0.3385          0.6804E+06
   3805      1     45     12      0.3211          0.6804E+06
   3806      1     45     13      0.3000          0.6804E+06
   3807      1     45     14      0.2785          0.6804E+06
   3808      1     45     15      0.2514          0.6804E+06
   3809      1     45     16      0.2259          0.6804E+06
   3810      1     45     17      0.1956          0.6804E+06
   3811      1     45     18      0.1639          0.6804E+06
   3812      1     45     19      0.1352          0.6804E+06
   3813      1     45     20      0.1040          0.6804E+06
   3814      1     45     21      0.8058E-01      0.6804E+06
   3815      1     45     22      0.6985E-01      0.6804E+06
   3816      1     45     23      0.6611E-01      0.6804E+06
   3817      1     45     24      0.6714E-01      0.6804E+06
   3818      1     45     25      0.6874E-01      0.6804E+06
   3819      1     45     58     -0.5572E-01      0.6804E+06
   3820      1     45     59     -0.5058E-01      0.6804E+06
   3821      1     45     60       0.000          0.6804E+06
   3822      1     45     61       0.000          0.6804E+06
   3823      1     45     62       0.000          0.6804E+06
   3824      1     45     63       0.000          0.6804E+06
   3825      1     45     64       0.000          0.6804E+06
   3826      1     45     65       0.000          0.6804E+06
   3827      1     45     66       0.000          0.6804E+06
   3828      1     45     67       0.000          0.6804E+06
   3829      1     45     68       0.000          0.6804E+06
   3830      1     45     69       0.000          0.6804E+06
   3831      1     45     70       0.000          0.6804E+06
   3832      1     45     71       0.000          0.6804E+06
   3833      1     45     72       0.000          0.6804E+06
   3834      1     45     73       0.000          0.6804E+06
   3835      1     45     74       0.000          0.6804E+06
   3836      1     45     75       0.000          0.6804E+06
   3837      1     45     76       0.000          0.6804E+06
   3838      1     45     77       0.000          0.6804E+06
   3839      1     45     78      0.8691E-02      0.6804E+06
   3840      1     45     79      0.2846E-01      0.6804E+06
   3841      1     45     80      0.4638E-01      0.6804E+06
   3842      1     45     81      0.6039E-01      0.6804E+06
   3843      1     45     82      0.6919E-01      0.6804E+06
   3844      1     45     83      0.7359E-01      0.6804E+06
   3845      1     45     84      0.7522E-01      0.6804E+06
   3846      1     45     85      0.7465E-01      0.6804E+06
   3847      1     45     86      0.7222E-01      0.6804E+06
   3848      1     45     87      0.6868E-01      0.6804E+06
   3849      1     45     88      0.6579E-01      0.6804E+06
   3850      1     45     89      0.6454E-01      0.6804E+06
   3851      1     45     90      0.6439E-01      0.6804E+06
   3852      1     45     91      0.6441E-01      0.6804E+06
   3853      1     45     92      0.6419E-01      0.6804E+06
   3854      1     45     93      0.6374E-01      0.6804E+06
   3855      1     45     94      0.6307E-01      0.6804E+06
   3856      1     45     95      0.6265E-01      0.6804E+06
   3857      1     45     96      0.6259E-01      0.6804E+06
   3858      1     45     97      0.6267E-01      0.6804E+06
   3859      1     45     98      0.6335E-01      0.6804E+06
   3860      1     45     99      0.6438E-01      0.6804E+06
   3861      1     45    100      0.6549E-01      0.6804E+06
   3862      1     46      1      0.6333          0.6804E+06
   3863      1     46      2      0.5811          0.6804E+06
   3864      1     46      3      0.5343          0.6804E+06
   3865      1     46      4      0.4823          0.6804E+06
   3866      1     46      5      0.4381          0.6804E+06
   3867      1     46      6      0.4111          0.6804E+06
   3868      1     46      7      0.3899          0.6804E+06
   3869      1     46      8      0.3733          0.6804E+06
   3870      1     46      9      0.3609          0.6804E+06
   3871      1     46     10      0.3478          0.6804E+06
   3872      1     46     11      0.3360          0.6804E+06
   3873      1     46     12      0.3208          0.6804E+06
   3874      1     46     13      0.3008          0.6804E+06
   3875      1     46     14      0.2799          0.6804E+06
   3876      1     46     15      0.2535          0.6804E+06
   3877      1     46     16      0.2288          0.6804E+06
   3878      1     46     17      0.1991          0.6804E+06
   3879      1     46     18      0.1679          0.6804E+06
   3880      1     46     19      0.1400          0.6804E+06
   3881      1     46     20      0.1101          0.6804E+06
   3882      1     46     21      0.8840E-01      0.6804E+06
   3883      1     46     22      0.7844E-01      0.6804E+06
   3884      1     46     23      0.7441E-01      0.6804E+06
   3885      1     46     24      0.7467E-01      0.6804E+06
   3886      1     46     58     -0.5501E-01      0.6804E+06
   3887      1     46     59     -0.5001E-01      0.6804E+06
   3888      1     46     60       0.000          0.6804E+06
   3889      1     46     61       0.000          0.6804E+06
   3890      1     46     62       0.000          0.6804E+06
   3891      1     46     63       0.000          0.6804E+06
   3892      1     46     64       0.000          0.6804E+06
   3893      1     46     65       0.000          0.6804E+06
   3894      1     46     66       0.000          0.6804E+06
   3895      1     46     67       0.000          0.6804E+06
   3896      1     46     68       0.000          0.6804E+06
   3897      1     46     69       0.000          0.6804E+06
   3898      1     46     70       0.000          0.6804E+06
   3899      1     46     71       0.000          0.6804E+06
   3900      1     46     72       0.000          0.6804E+06
   3901      1     46     73       0.000          0.6804E+06
   3902      1     46     74       0.000          0.6804E+06
   3903      1     46     75       0.000          0.6804E+06
   3904      1     46     76       0.000          0.6804E+06
   3905      1     46     77      0.7908E-02      0.6804E+06
   3906      1     46     78      0.2555E-01      0.6804E+06
   3907      1     46     79      0.4599E-01      0.6804E+06
   3908      1     46     80      0.6374E-01      0.6804E+06
   3909      1     46     81      0.7417E-01      0.6804E+06
   3910      1     46     82      0.7869E-01      0.6804E+06
   3911      1     46     83      0.8019E-01      0.6804E+06
   3912      1     46     84      0.7972E-01      0.6804E+06
   3913      1     46     85      0.7811E-01      0.6804E+06
   3914      1     46     86      0.7472E-01      0.6804E+06
   3915      1     46     87      0.7008E-01      0.6804E+06
   3916      1     46     88      0.6631E-01      0.6804E+06
   3917      1     46     89      0.6561E-01      0.6804E+06
   3918      1     46     90      0.6593E-01      0.6804E+06
   3919      1     46     91      0.6608E-01      0.6804E+06
   3920      1     46     92      0.6569E-01      0.6804E+06
   3921      1     46     93      0.6435E-01      0.6804E+06
   3922      1     46     94      0.6333E-01      0.6804E+06
   3923      1     46     95      0.6289E-01      0.6804E+06
   3924      1     46     96      0.6277E-01      0.6804E+06
   3925      1     46     97      0.6300E-01      0.6804E+06
   3926      1     46     98      0.6365E-01      0.6804E+06
   3927      1     46     99      0.6472E-01      0.6804E+06
   3928      1     46    100      0.6612E-01      0.6804E+06
   3929      1     47      1      0.6372          0.6804E+06
   3930      1     47      2      0.5806          0.6804E+06
   3931      1     47      3      0.5303          0.6804E+06
   3932      1     47      4      0.4750          0.6804E+06
   3933      1     47      5      0.4283          0.6804E+06
   3934      1     47      6      0.4004          0.6804E+06
   3935      1     47      7      0.3800          0.6804E+06
   3936      1     47      8      0.3647          0.6804E+06
   3937      1     47      9      0.3538          0.6804E+06
   3938      1     47     10      0.3428          0.6804E+06
   3939      1     47     11      0.3333          0.6804E+06
   3940      1     47     12      0.3206          0.6804E+06
   3941      1     47     13      0.3020          0.6804E+06
   3942      1     47     14      0.2818          0.6804E+06
   3943      1     47     15      0.2562          0.6804E+06
   3944      1     47     16      0.2323          0.6804E+06
   3945      1     47     17      0.2032          0.6804E+06
   3946      1     47     18      0.1722          0.6804E+06
   3947      1     47     19      0.1443          0.6804E+06
   3948      1     47     20      0.1142          0.6804E+06
   3949      1     47     21      0.9314E-01      0.6804E+06
   3950      1     47     22      0.8448E-01      0.6804E+06
   3951      1     47     23      0.8120E-01      0.6804E+06
   3952      1     47     24      0.8104E-01      0.6804E+06
   3953      1     47     58     -0.5369E-01      0.6804E+06
   3954      1     47     59     -0.5154E-01      0.6804E+06
   3955      1     47     60       0.000          0.6804E+06
   3956      1     47     61       0.000          0.6804E+06
   3957      1     47     62       0.000          0.6804E+06
   3958      1     47     63       0.000          0.6804E+06
   3959      1     47     64       0.000          0.6804E+06
   3960      1     47     65       0.000          0.6804E+06
   3961      1     47     66       0.000          0.6804E+06
   3962      1     47     67       0.000          0.6804E+06
   3963      1     47     68       0.000          0.6804E+06
   3964      1     47     69       0.000          0.6804E+06
   3965      1     47     70       0.000          0.6804E+06
   3966      1     47     71       0.000          0.6804E+06
   3967      1     47     72       0.000          0.6804E+06
   3968      1     47     73       0.000          0.6804E+06
   3969      1     47     74       0.000          0.6804E+06
   3970      1     47     75       0.000          0.6804E+06
   3971      1     47     76       0.000          0.6804E+06
   3972      1     47     77      0.1581E-01      0.6804E+06
   3973      1     47     78      0.4050E-01      0.6804E+06
   3974      1     47     79      0.6354E-01      0.6804E+06
   3975      1     47     80      0.8014E-01      0.6804E+06
   3976      1     47     81      0.8707E-01      0.6804E+06
   3977      1     47     82      0.8779E-01      0.6804E+06
   3978      1     47     83      0.8671E-01      0.6804E+06
   3979      1     47     84      0.8422E-01      0.6804E+06
   3980      1     47     85      0.8200E-01      0.6804E+06
   3981      1     47     86      0.7849E-01      0.6804E+06
   3982      1     47     87      0.7391E-01      0.6804E+06
   3983      1     47     88      0.7041E-01      0.6804E+06
   3984      1     47     89      0.6935E-01      0.6804E+06
   3985      1     47     90      0.6884E-01      0.6804E+06
   3986      1     47     91      0.6821E-01      0.6804E+06
   3987      1     47     92      0.6723E-01      0.6804E+06
   3988      1     47     93      0.6591E-01      0.6804E+06
   3989      1     47     94      0.6462E-01      0.6804E+06
   3990      1     47     95      0.6372E-01      0.6804E+06
   3991      1     47     96      0.6328E-01      0.6804E+06
   3992      1     47     97      0.6335E-01      0.6804E+06
   3993      1     47     98      0.6391E-01      0.6804E+06
   3994      1     47     99      0.6510E-01      0.6804E+06
   3995      1     47    100      0.6690E-01      0.6804E+06
   3996      1     48      1      0.6411          0.6804E+06
   3997      1     48      2      0.5810          0.6804E+06
   3998      1     48      3      0.5283          0.6804E+06
   3999      1     48      4      0.4719          0.6804E+06
   4000      1     48      5      0.4251          0.6804E+06
   4001      1     48      6      0.3953          0.6804E+06
   4002      1     48      7      0.3723          0.6804E+06
   4003      1     48      8      0.3567          0.6804E+06
   4004      1     48      9      0.3469          0.6804E+06
   4005      1     48     10      0.3377          0.6804E+06
   4006      1     48     11      0.3297          0.6804E+06
   4007      1     48     12      0.3184          0.6804E+06
   4008      1     48     13      0.3018          0.6804E+06
   4009      1     48     14      0.2831          0.6804E+06
   4010      1     48     15      0.2587          0.6804E+06
   4011      1     48     16      0.2356          0.6804E+06
   4012      1     48     17      0.2078          0.6804E+06
   4013      1     48     18      0.1774          0.6804E+06
   4014      1     48     19      0.1486          0.6804E+06
   4015      1     48     20      0.1161          0.6804E+06
   4016      1     48     21      0.9436E-01      0.6804E+06
   4017      1     48     22      0.8738E-01      0.6804E+06
   4018      1     48     23      0.8581E-01      0.6804E+06
   4019      1     48     24      0.8545E-01      0.6804E+06
   4020      1     48     58     -0.4684E-01      0.6804E+06
   4021      1     48     59     -0.4970E-01      0.6804E+06
   4022      1     48     60       0.000          0.6804E+06
   4023      1     48     61       0.000          0.6804E+06
   4024      1     48     62       0.000          0.6804E+06
   4025      1     48     63       0.000          0.6804E+06
   4026      1     48     64       0.000          0.6804E+06
   4027      1     48     65       0.000          0.6804E+06
   4028      1     48     66       0.000          0.6804E+06
   4029      1     48     67       0.000          0.6804E+06
   4030      1     48     68       0.000          0.6804E+06
   4031      1     48     69       0.000          0.6804E+06
   4032      1     48     70       0.000          0.6804E+06
   4033      1     48     71       0.000          0.6804E+06
   4034      1     48     72       0.000          0.6804E+06
   4035      1     48     73       0.000          0.6804E+06
   4036      1     48     74       0.000          0.6804E+06
   4037      1     48     75       0.000          0.6804E+06
   4038      1     48     76       0.000          0.6804E+06
   4039      1     48     77      0.2057E-01      0.6804E+06
   4040      1     48     78      0.5094E-01      0.6804E+06
   4041      1     48     79      0.7419E-01      0.6804E+06
   4042      1     48     80      0.8650E-01      0.6804E+06
   4043      1     48     81      0.9218E-01      0.6804E+06
   4044      1     48     82      0.9262E-01      0.6804E+06
   4045      1     48     83      0.9068E-01      0.6804E+06
   4046      1     48     84      0.8726E-01      0.6804E+06
   4047      1     48     85      0.8525E-01      0.6804E+06
   4048      1     48     86      0.8264E-01      0.6804E+06
   4049      1     48     87      0.7914E-01      0.6804E+06
   4050      1     48     88      0.7656E-01      0.6804E+06
   4051      1     48     89      0.7440E-01      0.6804E+06
   4052      1     48     90      0.7256E-01      0.6804E+06
   4053      1     48     91      0.7109E-01      0.6804E+06
   4054      1     48     92      0.6944E-01      0.6804E+06
   4055      1     48     93      0.6789E-01      0.6804E+06
   4056      1     48     94      0.6611E-01      0.6804E+06
   4057      1     48     95      0.6456E-01      0.6804E+06
   4058      1     48     96      0.6361E-01      0.6804E+06
   4059      1     48     97      0.6340E-01      0.6804E+06
   4060      1     48     98      0.6396E-01      0.6804E+06
   4061      1     48     99      0.6543E-01      0.6804E+06
   4062      1     48    100      0.6775E-01      0.6804E+06
   4063      1     49      1      0.6445          0.6804E+06
   4064      1     49      2      0.5812          0.6804E+06
   4065      1     49      3      0.5260          0.6804E+06
   4066      1     49      4      0.4680          0.6804E+06
   4067      1     49      5      0.4202          0.6804E+06
   4068      1     49      6      0.3889          0.6804E+06
   4069      1     49      7      0.3645          0.6804E+06
   4070      1     49      8      0.3492          0.6804E+06
   4071      1     49      9      0.3404          0.6804E+06
   4072      1     49     10      0.3328          0.6804E+06
   4073      1     49     11      0.3263          0.6804E+06
   4074      1     49     12      0.3166          0.6804E+06
   4075      1     49     13      0.3015          0.6804E+06
   4076      1     49     14      0.2841          0.6804E+06
   4077      1     49     15      0.2606          0.6804E+06
   4078      1     49     16      0.2384          0.6804E+06
   4079      1     49     17      0.2125          0.6804E+06
   4080      1     49     18      0.1836          0.6804E+06
   4081      1     49     19      0.1544          0.6804E+06
   4082      1     49     20      0.1186          0.6804E+06
   4083      1     49     21      0.9563E-01      0.6804E+06
   4084      1     49     22      0.8942E-01      0.6804E+06
   4085      1     49     23      0.8890E-01      0.6804E+06
   4086      1     49     24      0.8791E-01      0.6804E+06
   4087      1     49     58     -0.3985E-01      0.6804E+06
   4088      1     49     59     -0.4826E-01      0.6804E+06
   4089      1     49     60       0.000          0.6804E+06
   4090      1     49     61       0.000          0.6804E+06
   4091      1     49     62       0.000          0.6804E+06
   4092      1     49     63       0.000          0.6804E+06
   4093      1     49     64       0.000          0.6804E+06
   4094      1     49     65       0.000          0.6804E+06
   4095      1     49     66       0.000          0.6804E+06
   4096      1     49     67       0.000          0.6804E+06
   4097      1     49     68       0.000          0.6804E+06
   4098      1     49     69       0.000          0.6804E+06
   4099      1     49     70       0.000          0.6804E+06
   4100      1     49     71       0.000          0.6804E+06
   4101      1     49     72       0.000          0.6804E+06
   4102      1     49     73       0.000          0.6804E+06
   4103      1     49     74       0.000          0.6804E+06
   4104      1     49     75       0.000          0.6804E+06
   4105      1     49     76       0.000          0.6804E+06
   4106      1     49     77      0.2617E-01      0.6804E+06
   4107      1     49     78      0.5977E-01      0.6804E+06
   4108      1     49     79      0.8224E-01      0.6804E+06
   4109      1     49     80      0.9056E-01      0.6804E+06
   4110      1     49     81      0.9371E-01      0.6804E+06
   4111      1     49     82      0.9331E-01      0.6804E+06
   4112      1     49     83      0.9132E-01      0.6804E+06
   4113      1     49     84      0.8868E-01      0.6804E+06
   4114      1     49     85      0.8744E-01      0.6804E+06
   4115      1     49     86      0.8587E-01      0.6804E+06
   4116      1     49     87      0.8338E-01      0.6804E+06
   4117      1     49     88      0.8144E-01      0.6804E+06
   4118      1     49     89      0.7867E-01      0.6804E+06
   4119      1     49     90      0.7617E-01      0.6804E+06
   4120      1     49     91      0.7440E-01      0.6804E+06
   4121      1     49     92      0.7222E-01      0.6804E+06
   4122      1     49     93      0.7004E-01      0.6804E+06
   4123      1     49     94      0.6758E-01      0.6804E+06
   4124      1     49     95      0.6541E-01      0.6804E+06
   4125      1     49     96      0.6392E-01      0.6804E+06
   4126      1     49     97      0.6339E-01      0.6804E+06
   4127      1     49     98      0.6404E-01      0.6804E+06
   4128      1     49     99      0.6595E-01      0.6804E+06
   4129      1     49    100      0.6881E-01      0.6804E+06
   4130      1     50      1      0.6484          0.6804E+06
   4131      1     50      2      0.5806          0.6804E+06
   4132      1     50      3      0.5216          0.6804E+06
   4133      1     50      4      0.4600          0.6804E+06
   4134      1     50      5      0.4096          0.6804E+06
   4135      1     50      6      0.3771          0.6804E+06
   4136      1     50      7      0.3532          0.6804E+06
   4137      1     50      8      0.3393          0.6804E+06
   4138      1     50      9      0.3323          0.6804E+06
   4139      1     50     10      0.3270          0.6804E+06
   4140      1     50     11      0.3229          0.6804E+06
   4141      1     50     12      0.3159          0.6804E+06
   4142      1     50     13      0.3022          0.6804E+06
   4143      1     50     14      0.2850          0.6804E+06
   4144      1     50     15      0.2614          0.6804E+06
   4145      1     50     16      0.2395          0.6804E+06
   4146      1     50     17      0.2147          0.6804E+06
   4147      1     50     18      0.1879          0.6804E+06
   4148      1     50     19      0.1614          0.6804E+06
   4149      1     50     20      0.1288          0.6804E+06
   4150      1     50     21      0.1070          0.6804E+06
   4151      1     50     22      0.9810E-01      0.6804E+06
   4152      1     50     23      0.9303E-01      0.6804E+06
   4153      1     50     24      0.8803E-01      0.6804E+06
   4154      1     50     25      0.7495E-01      0.6804E+06
   4155      1     50     58     -0.3243E-01      0.6804E+06
   4156      1     50     59       0.000          0.6804E+06
   4157      1     50     60       0.000          0.6804E+06
   4158      1     50     61       0.000          0.6804E+06
   4159      1     50     62       0.000          0.6804E+06
   4160      1     50     63       0.000          0.6804E+06
   4161      1     50     64       0.000          0.6804E+06
   4162      1     50     65       0.000          0.6804E+06
   4163      1     50     66       0.000          0.6804E+06
   4164      1     50     67       0.000          0.6804E+06
   4165      1     50     68       0.000          0.6804E+06
   4166      1     50     69       0.000          0.6804E+06
   4167      1     50     70       0.000          0.6804E+06
   4168      1     50     71       0.000          0.6804E+06
   4169      1     50     72       0.000          0.6804E+06
   4170      1     50     73       0.000          0.6804E+06
   4171      1     50     74       0.000          0.6804E+06
   4172      1     50     75       0.000          0.6804E+06
   4173      1     50     76       0.000          0.6804E+06
   4174      1     50     77      0.2622E-01      0.6804E+06
   4175      1     50     78      0.6102E-01      0.6804E+06
   4176      1     50     79      0.8206E-01      0.6804E+06
   4177      1     50     80      0.8855E-01      0.6804E+06
   4178      1     50     81      0.9105E-01      0.6804E+06
   4179      1     50     82      0.9102E-01      0.6804E+06
   4180      1     50     83      0.8983E-01      0.6804E+06
   4181      1     50     84      0.8921E-01      0.6804E+06
   4182      1     50     85      0.8859E-01      0.6804E+06
   4183      1     50     86      0.8761E-01      0.6804E+06
   4184      1     50     87      0.8664E-01      0.6804E+06
   4185      1     50     88      0.8608E-01      0.6804E+06
   4186      1     50     89      0.8334E-01      0.6804E+06
   4187      1     50     90      0.8048E-01      0.6804E+06
   4188      1     50     91      0.7860E-01      0.6804E+06
   4189      1     50     92      0.7598E-01      0.6804E+06
   4190      1     50     93      0.7338E-01      0.6804E+06
   4191      1     50     94      0.7021E-01      0.6804E+06
   4192      1     50     95      0.6711E-01      0.6804E+06
   4193      1     50     96      0.6480E-01      0.6804E+06
   4194      1     50     97      0.6365E-01      0.6804E+06
   4195      1     50     98      0.6446E-01      0.6804E+06
   4196      1     50     99      0.6716E-01      0.6804E+06
   4197      1     50    100      0.7078E-01      0.6804E+06
   4198      1     51      1      0.6524          0.6804E+06
   4199      1     51      2      0.5785          0.6804E+06
   4200      1     51      3      0.5145          0.6804E+06
   4201      1     51      4      0.4479          0.6804E+06
   4202      1     51      5      0.3935          0.6804E+06
   4203      1     51      6      0.3598          0.6804E+06
   4204      1     51      7      0.3389          0.6804E+06
   4205      1     51      8      0.3280          0.6804E+06
   4206      1     51      9      0.3233          0.6804E+06
   4207      1     51     10      0.3208          0.6804E+06
   4208      1     51     11      0.3194          0.6804E+06
   4209      1     51     12      0.3158          0.6804E+06
   4210      1     51     13      0.3028          0.6804E+06
   4211      1     51     14      0.2848          0.6804E+06
   4212      1     51     15      0.2597          0.6804E+06
   4213      1     51     16      0.2374          0.6804E+06
   4214      1     51     17      0.2126          0.6804E+06
   4215      1     51     18      0.1872          0.6804E+06
   4216      1     51     19      0.1642          0.6804E+06
   4217      1     51     20      0.1377          0.6804E+06
   4218      1     51     21      0.1180          0.6804E+06
   4219      1     51     22      0.1067          0.6804E+06
   4220      1     51     23      0.9668E-01      0.6804E+06
   4221      1     51     24      0.8690E-01      0.6804E+06
   4222      1     51     25      0.6720E-01      0.6804E+06
   4223      1     51     59       0.000          0.6804E+06
   4224      1     51     60       0.000          0.6804E+06
   4225      1     51     61       0.000          0.6804E+06
   4226      1     51     62       0.000          0.6804E+06
   4227      1     51     63       0.000          0.6804E+06
   4228      1     51     64       0.000          0.6804E+06
   4229      1     51     65       0.000          0.6804E+06
   4230      1     51     66       0.000          0.6804E+06
   4231      1     51     67       0.000          0.6804E+06
   4232      1     51     68       0.000          0.6804E+06
   4233      1     51     69       0.000          0.6804E+06
   4234      1     51     70       0.000          0.6804E+06
   4235      1     51     71       0.000          0.6804E+06
   4236      1     51     72       0.000          0.6804E+06
   4237      1     51     73       0.000          0.6804E+06
   4238      1     51     74       0.000          0.6804E+06
   4239      1     51     75       0.000          0.6804E+06
   4240      1     51     76       0.000          0.6804E+06
   4241      1     51     77      0.1992E-01      0.6804E+06
   4242      1     51     78      0.5330E-01      0.6804E+06
   4243      1     51     79      0.7253E-01      0.6804E+06
   4244      1     51     80      0.7934E-01      0.6804E+06
   4245      1     51     81      0.8335E-01      0.6804E+06
   4246      1     51     82      0.8528E-01      0.6804E+06
   4247      1     51     83      0.8566E-01      0.6804E+06
   4248      1     51     84      0.8673E-01      0.6804E+06
   4249      1     51     85      0.8706E-01      0.6804E+06
   4250      1     51     86      0.8713E-01      0.6804E+06
   4251      1     51     87      0.8749E-01      0.6804E+06
   4252      1     51     88      0.8754E-01      0.6804E+06
   4253      1     51     89      0.8595E-01      0.6804E+06
   4254      1     51     90      0.8414E-01      0.6804E+06
   4255      1     51     91      0.8279E-01      0.6804E+06
   4256      1     51     92      0.8023E-01      0.6804E+06
   4257      1     51     93      0.7771E-01      0.6804E+06
   4258      1     51     94      0.7434E-01      0.6804E+06
   4259      1     51     95      0.7050E-01      0.6804E+06
   4260      1     51     96      0.6706E-01      0.6804E+06
   4261      1     51     97      0.6477E-01      0.6804E+06
   4262      1     51     98      0.6573E-01      0.6804E+06
   4263      1     51     99      0.6979E-01      0.6804E+06
   4264      1     51    100      0.7431E-01      0.6804E+06
   4265      1     52      1      0.6540          0.6804E+06
   4266      1     52      2      0.5751          0.6804E+06
   4267      1     52      3      0.5075          0.6804E+06
   4268      1     52      4      0.4366          0.6804E+06
   4269      1     52      5      0.3773          0.6804E+06
   4270      1     52      6      0.3424          0.6804E+06
   4271      1     52      7      0.3261          0.6804E+06
   4272      1     52      8      0.3179          0.6804E+06
   4273      1     52      9      0.3149          0.6804E+06
   4274      1     52     10      0.3143          0.6804E+06
   4275      1     52     11      0.3148          0.6804E+06
   4276      1     52     12      0.3137          0.6804E+06
   4277      1     52     13      0.3010          0.6804E+06
   4278      1     52     14      0.2822          0.6804E+06
   4279      1     52     15      0.2558          0.6804E+06
   4280      1     52     16      0.2327          0.6804E+06
   4281      1     52     17      0.2073          0.6804E+06
   4282      1     52     18      0.1829          0.6804E+06
   4283      1     52     19      0.1628          0.6804E+06
   4284      1     52     20      0.1417          0.6804E+06
   4285      1     52     21      0.1245          0.6804E+06
   4286      1     52     22      0.1123          0.6804E+06
   4287      1     52     23      0.9941E-01      0.6804E+06
   4288      1     52     24      0.8616E-01      0.6804E+06
   4289      1     52     25      0.6153E-01      0.6804E+06
   4290      1     52     26      0.1179E-01      0.6804E+06
   4291      1     52     60       0.000          0.6804E+06
   4292      1     52     61       0.000          0.6804E+06
   4293      1     52     62       0.000          0.6804E+06
   4294      1     52     63       0.000          0.6804E+06
   4295      1     52     64       0.000          0.6804E+06
   4296      1     52     65       0.000          0.6804E+06
   4297      1     52     66       0.000          0.6804E+06
   4298      1     52     67       0.000          0.6804E+06
   4299      1     52     68       0.000          0.6804E+06
   4300      1     52     69       0.000          0.6804E+06
   4301      1     52     70       0.000          0.6804E+06
   4302      1     52     71       0.000          0.6804E+06
   4303      1     52     72       0.000          0.6804E+06
   4304      1     52     73       0.000          0.6804E+06
   4305      1     52     74       0.000          0.6804E+06
   4306      1     52     75       0.000          0.6804E+06
   4307      1     52     76       0.000          0.6804E+06
   4308      1     52     77      0.1572E-01      0.6804E+06
   4309      1     52     78      0.4284E-01      0.6804E+06
   4310      1     52     79      0.5901E-01      0.6804E+06
   4311      1     52     80      0.6666E-01      0.6804E+06
   4312      1     52     81      0.7299E-01      0.6804E+06
   4313      1     52     82      0.7746E-01      0.6804E+06
   4314      1     52     83      0.7968E-01      0.6804E+06
   4315      1     52     84      0.8252E-01      0.6804E+06
   4316      1     52     85      0.8423E-01      0.6804E+06
   4317      1     52     86      0.8557E-01      0.6804E+06
   4318      1     52     87      0.8694E-01      0.6804E+06
   4319      1     52     88      0.8758E-01      0.6804E+06
   4320      1     52     89      0.8741E-01      0.6804E+06
   4321      1     52     90      0.8709E-01      0.6804E+06
   4322      1     52     91      0.8682E-01      0.6804E+06
   4323      1     52     92      0.8502E-01      0.6804E+06
   4324      1     52     93      0.8294E-01      0.6804E+06
   4325      1     52     94      0.7981E-01      0.6804E+06
   4326      1     52     95      0.7585E-01      0.6804E+06
   4327      1     52     96      0.7188E-01      0.6804E+06
   4328      1     52     97      0.6865E-01      0.6804E+06
   4329      1     52     98      0.6960E-01      0.6804E+06
   4330      1     52     99      0.7478E-01      0.6804E+06
   4331      1     52    100      0.7955E-01      0.6804E+06
   4332      1     53      1      0.6516          0.6804E+06
   4333      1     53      2      0.5689          0.6804E+06
   4334      1     53      3      0.4989          0.6804E+06
   4335      1     53      4      0.4266          0.6804E+06
   4336      1     53      5      0.3680          0.6804E+06
   4337      1     53      6      0.3333          0.6804E+06
   4338      1     53      7      0.3159          0.6804E+06
   4339      1     53      8      0.3079          0.6804E+06
   4340      1     53      9      0.3056          0.6804E+06
   4341      1     53     10      0.3056          0.6804E+06
   4342      1     53     11      0.3059          0.6804E+06
   4343      1     53     12      0.3033          0.6804E+06
   4344      1     53     13      0.2912          0.6804E+06
   4345      1     53     14      0.2739          0.6804E+06
   4346      1     53     15      0.2486          0.6804E+06
   4347      1     53     16      0.2249          0.6804E+06
   4348      1     53     17      0.1988          0.6804E+06
   4349      1     53     18      0.1759          0.6804E+06
   4350      1     53     19      0.1590          0.6804E+06
   4351      1     53     20      0.1426          0.6804E+06
   4352      1     53     21      0.1282          0.6804E+06
   4353      1     53     22      0.1165          0.6804E+06
   4354      1     53     23      0.1024          0.6804E+06
   4355      1     53     24      0.8684E-01      0.6804E+06
   4356      1     53     25      0.5886E-01      0.6804E+06
   4357      1     53     26      0.2275E-01      0.6804E+06
   4358      1     53     27     -0.4083E-01      0.6804E+06
   4359      1     53     60       0.000          0.6804E+06
   4360      1     53     61       0.000          0.6804E+06
   4361      1     53     62       0.000          0.6804E+06
   4362      1     53     63       0.000          0.6804E+06
   4363      1     53     64       0.000          0.6804E+06
   4364      1     53     65       0.000          0.6804E+06
   4365      1     53     66       0.000          0.6804E+06
   4366      1     53     67       0.000          0.6804E+06
   4367      1     53     68       0.000          0.6804E+06
   4368      1     53     69       0.000          0.6804E+06
   4369      1     53     70       0.000          0.6804E+06
   4370      1     53     71       0.000          0.6804E+06
   4371      1     53     72       0.000          0.6804E+06
   4372      1     53     73       0.000          0.6804E+06
   4373      1     53     74       0.000          0.6804E+06
   4374      1     53     75       0.000          0.6804E+06
   4375      1     53     76       0.000          0.6804E+06
   4376      1     53     77      0.3067E-01      0.6804E+06
   4377      1     53     78      0.3098E-01      0.6804E+06
   4378      1     53     79      0.4053E-01      0.6804E+06
   4379      1     53     80      0.4985E-01      0.6804E+06
   4380      1     53     81      0.5936E-01      0.6804E+06
   4381      1     53     82      0.6622E-01      0.6804E+06
   4382      1     53     83      0.7034E-01      0.6804E+06
   4383      1     53     84      0.7698E-01      0.6804E+06
   4384      1     53     85      0.8097E-01      0.6804E+06
   4385      1     53     86      0.8344E-01      0.6804E+06
   4386      1     53     87      0.8571E-01      0.6804E+06
   4387      1     53     88      0.8765E-01      0.6804E+06
   4388      1     53     89      0.8923E-01      0.6804E+06
   4389      1     53     90      0.9073E-01      0.6804E+06
   4390      1     53     91      0.9206E-01      0.6804E+06
   4391      1     53     92      0.9175E-01      0.6804E+06
   4392      1     53     93      0.9055E-01      0.6804E+06
   4393      1     53     94      0.8819E-01      0.6804E+06
   4394      1     53     95      0.8493E-01      0.6804E+06
   4395      1     53     96      0.8153E-01      0.6804E+06
   4396      1     53     97      0.7871E-01      0.6804E+06
   4397      1     53     98      0.7956E-01      0.6804E+06
   4398      1     53     99      0.8438E-01      0.6804E+06
   4399      1     53    100      0.8848E-01      0.6804E+06
   4400      1     54      1      0.6457          0.6804E+06
   4401      1     54      2      0.5612          0.6804E+06
   4402      1     54      3      0.4902          0.6804E+06
   4403      1     54      4      0.4186          0.6804E+06
   4404      1     54      5      0.3628          0.6804E+06
   4405      1     54      6      0.3289          0.6804E+06
   4406      1     54      7      0.3089          0.6804E+06
   4407      1     54      8      0.3004          0.6804E+06
   4408      1     54      9      0.2982          0.6804E+06
   4409      1     54     10      0.2983          0.6804E+06
   4410      1     54     11      0.2982          0.6804E+06
   4411      1     54     12      0.2944          0.6804E+06
   4412      1     54     13      0.2827          0.6804E+06
   4413      1     54     14      0.2663          0.6804E+06
   4414      1     54     15      0.2418          0.6804E+06
   4415      1     54     16      0.2176          0.6804E+06
   4416      1     54     17      0.1901          0.6804E+06
   4417      1     54     18      0.1683          0.6804E+06
   4418      1     54     19      0.1550          0.6804E+06
   4419      1     54     20      0.1420          0.6804E+06
   4420      1     54     21      0.1300          0.6804E+06
   4421      1     54     22      0.1195          0.6804E+06
   4422      1     54     23      0.1059          0.6804E+06
   4423      1     54     24      0.9019E-01      0.6804E+06
   4424      1     54     25      0.6155E-01      0.6804E+06
   4425      1     54     26      0.2269E-01      0.6804E+06
   4426      1     54     27     -0.3953E-01      0.6804E+06
   4427      1     54     60       0.000          0.6804E+06
   4428      1     54     61       0.000          0.6804E+06
   4429      1     54     62       0.000          0.6804E+06
   4430      1     54     63       0.000          0.6804E+06
   4431      1     54     64       0.000          0.6804E+06
   4432      1     54     65       0.000          0.6804E+06
   4433      1     54     66       0.000          0.6804E+06
   4434      1     54     67       0.000          0.6804E+06
   4435      1     54     68       0.000          0.6804E+06
   4436      1     54     69       0.000          0.6804E+06
   4437      1     54     70       0.000          0.6804E+06
   4438      1     54     71       0.000          0.6804E+06
   4439      1     54     72       0.000          0.6804E+06
   4440      1     54     73       0.000          0.6804E+06
   4441      1     54     74       0.000          0.6804E+06
   4442      1     54     75       0.000          0.6804E+06
   4443      1     54     76       0.000          0.6804E+06
   4444      1     54     77       0.000          0.6804E+06
   4445      1     54     78      0.5129E-02      0.6804E+06
   4446      1     54     79      0.1917E-01      0.6804E+06
   4447      1     54     80      0.3284E-01      0.6804E+06
   4448      1     54     81      0.4660E-01      0.6804E+06
   4449      1     54     82      0.5659E-01      0.6804E+06
   4450      1     54     83      0.6343E-01      0.6804E+06
   4451      1     54     84      0.7243E-01      0.6804E+06
   4452      1     54     85      0.7830E-01      0.6804E+06
   4453      1     54     86      0.8232E-01      0.6804E+06
   4454      1     54     87      0.8526E-01      0.6804E+06
   4455      1     54     88      0.8826E-01      0.6804E+06
   4456      1     54     89      0.9161E-01      0.6804E+06
   4457      1     54     90      0.9485E-01      0.6804E+06
   4458      1     54     91      0.9743E-01      0.6804E+06
   4459      1     54     92      0.9865E-01      0.6804E+06
   4460      1     54     93      0.9860E-01      0.6804E+06
   4461      1     54     94      0.9746E-01      0.6804E+06
   4462      1     54     95      0.9557E-01      0.6804E+06
   4463      1     54     96      0.9364E-01      0.6804E+06
   4464      1     54     97      0.9232E-01      0.6804E+06
   4465      1     54     98      0.9299E-01      0.6804E+06
   4466      1     54     99      0.9595E-01      0.6804E+06
   4467      1     54    100      0.9876E-01      0.6804E+06
   4468      1     55      1      0.6371          0.6804E+06
   4469      1     55      2      0.5506          0.6804E+06
   4470      1     55      3      0.4782          0.6804E+06
   4471      1     55      4      0.4064          0.6804E+06
   4472      1     55      5      0.3519          0.6804E+06
   4473      1     55      6      0.3198          0.6804E+06
   4474      1     55      7      0.3006          0.6804E+06
   4475      1     55      8      0.2928          0.6804E+06
   4476      1     55      9      0.2910          0.6804E+06
   4477      1     55     10      0.2914          0.6804E+06
   4478      1     55     11      0.2914          0.6804E+06
   4479      1     55     12      0.2875          0.6804E+06
   4480      1     55     13      0.2758          0.6804E+06
   4481      1     55     14      0.2597          0.6804E+06
   4482      1     55     15      0.2356          0.6804E+06
   4483      1     55     16      0.2117          0.6804E+06
   4484      1     55     17      0.1848          0.6804E+06
   4485      1     55     18      0.1648          0.6804E+06
   4486      1     55     19      0.1541          0.6804E+06
   4487      1     55     20      0.1429          0.6804E+06
   4488      1     55     21      0.1329          0.6804E+06
   4489      1     55     22      0.1240          0.6804E+06
   4490      1     55     23      0.1118          0.6804E+06
   4491      1     55     24      0.9718E-01      0.6804E+06
   4492      1     55     25      0.7122E-01      0.6804E+06
   4493      1     55     26      0.3151E-01      0.6804E+06
   4494      1     55     27     -0.1204E-01      0.6804E+06
   4495      1     55     60       0.000          0.6804E+06
   4496      1     55     61       0.000          0.6804E+06
   4497      1     55     62       0.000          0.6804E+06
   4498      1     55     63       0.000          0.6804E+06
   4499      1     55     64       0.000          0.6804E+06
   4500      1     55     65       0.000          0.6804E+06
   4501      1     55     66       0.000          0.6804E+06
   4502      1     55     67       0.000          0.6804E+06
   4503      1     55     68       0.000          0.6804E+06
   4504      1     55     69       0.000          0.6804E+06
   4505      1     55     70       0.000          0.6804E+06
   4506      1     55     71       0.000          0.6804E+06
   4507      1     55     72       0.000          0.6804E+06
   4508      1     55     73       0.000          0.6804E+06
   4509      1     55     74       0.000          0.6804E+06
   4510      1     55     75       0.000          0.6804E+06
   4511      1     55     76       0.000          0.6804E+06
   4512      1     55     77       0.000          0.6804E+06
   4513      1     55     78       0.000          0.6804E+06
   4514      1     55     79       0.000          0.6804E+06
   4515      1     55     80      0.1475E-01      0.6804E+06
   4516      1     55     81      0.3321E-01      0.6804E+06
   4517      1     55     82      0.4759E-01      0.6804E+06
   4518      1     55     83      0.5775E-01      0.6804E+06
   4519      1     55     84      0.6920E-01      0.6804E+06
   4520      1     55     85      0.7678E-01      0.6804E+06
   4521      1     55     86      0.8222E-01      0.6804E+06
   4522      1     55     87      0.8665E-01      0.6804E+06
   4523      1     55     88      0.9097E-01      0.6804E+06
   4524      1     55     89      0.9613E-01      0.6804E+06
   4525      1     55     90      0.1012          0.6804E+06
   4526      1     55     91      0.1052          0.6804E+06
   4527      1     55     92      0.1084          0.6804E+06
   4528      1     55     93      0.1098          0.6804E+06
   4529      1     55     94      0.1102          0.6804E+06
   4530      1     55     95      0.1099          0.6804E+06
   4531      1     55     96      0.1094          0.6804E+06
   4532      1     55     97      0.1092          0.6804E+06
   4533      1     55     98      0.1098          0.6804E+06
   4534      1     55     99      0.1116          0.6804E+06
   4535      1     55    100      0.1131          0.6804E+06
   4536      1     56      1      0.6312          0.6804E+06
   4537      1     56      2      0.5409          0.6804E+06
   4538      1     56      3      0.4642          0.6804E+06
   4539      1     56      4      0.3887          0.6804E+06
   4540      1     56      5      0.3345          0.6804E+06
   4541      1     56      6      0.3061          0.6804E+06
   4542      1     56      7      0.2913          0.6804E+06
   4543      1     56      8      0.2862          0.6804E+06
   4544      1     56      9      0.2857          0.6804E+06
   4545      1     56     10      0.2869          0.6804E+06
   4546      1     56     11      0.2876          0.6804E+06
   4547      1     56     12      0.2847          0.6804E+06
   4548      1     56     13      0.2729          0.6804E+06
   4549      1     56     14      0.2561          0.6804E+06
   4550      1     56     15      0.2319          0.6804E+06
   4551      1     56     16      0.2096          0.6804E+06
   4552      1     56     17      0.1859          0.6804E+06
   4553      1     56     18      0.1684          0.6804E+06
   4554      1     56     19      0.1589          0.6804E+06
   4555      1     56     20      0.1490          0.6804E+06
   4556      1     56     21      0.1399          0.6804E+06
   4557      1     56     22      0.1312          0.6804E+06
   4558      1     56     23      0.1194          0.6804E+06
   4559      1     56     24      0.1062          0.6804E+06
   4560      1     56     25      0.8524E-01      0.6804E+06
   4561      1     56     26      0.5596E-01      0.6804E+06
   4562      1     56     27      0.1974E-01      0.6804E+06
   4563      1     56     60       0.000          0.6804E+06
   4564      1     56     61       0.000          0.6804E+06
   4565      1     56     62       0.000          0.6804E+06
   4566      1     56     63       0.000          0.6804E+06
   4567      1     56     64       0.000          0.6804E+06
   4568      1     56     65       0.000          0.6804E+06
   4569      1     56     66       0.000          0.6804E+06
   4570      1     56     67       0.000          0.6804E+06
   4571      1     56     68       0.000          0.6804E+06
   4572      1     56     69       0.000          0.6804E+06
   4573      1     56     70       0.000          0.6804E+06
   4574      1     56     71       0.000          0.6804E+06
   4575      1     56     72       0.000          0.6804E+06
   4576      1     56     73       0.000          0.6804E+06
   4577      1     56     74       0.000          0.6804E+06
   4578      1     56     75       0.000          0.6804E+06
   4579      1     56     76       0.000          0.6804E+06
   4580      1     56     77       0.000          0.6804E+06
   4581      1     56     78       0.000          0.6804E+06
   4582      1     56     79       0.000          0.6804E+06
   4583      1     56     80      0.2085E-02      0.6804E+06
   4584      1     56     81      0.2358E-01      0.6804E+06
   4585      1     56     82      0.4190E-01      0.6804E+06
   4586      1     56     83      0.5476E-01      0.6804E+06
   4587      1     56     84      0.6855E-01      0.6804E+06
   4588      1     56     85      0.7777E-01      0.6804E+06
   4589      1     56     86      0.8464E-01      0.6804E+06
   4590      1     56     87      0.9097E-01      0.6804E+06
   4591      1     56     88      0.9667E-01      0.6804E+06
   4592      1     56     89      0.1034          0.6804E+06
   4593      1     56     90      0.1098          0.6804E+06
   4594      1     56     91      0.1150          0.6804E+06
   4595      1     56     92      0.1195          0.6804E+06
   4596      1     56     93      0.1222          0.6804E+06
   4597      1     56     94      0.1241          0.6804E+06
   4598      1     56     95      0.1254          0.6804E+06
   4599      1     56     96      0.1262          0.6804E+06
   4600      1     56     97      0.1269          0.6804E+06
   4601      1     56     98      0.1277          0.6804E+06
   4602      1     56     99      0.1290          0.6804E+06
   4603      1     56    100      0.1295          0.6804E+06
   4604      1     57      1      0.6304          0.6804E+06
   4605      1     57      2      0.5364          0.6804E+06
   4606      1     57      3      0.4541          0.6804E+06
   4607      1     57      4      0.3704          0.6804E+06
   4608      1     57      5      0.3153          0.6804E+06
   4609      1     57      6      0.2940          0.6804E+06
   4610      1     57      7      0.2853          0.6804E+06
   4611      1     57      8      0.2832          0.6804E+06
   4612      1     57      9      0.2837          0.6804E+06
   4613      1     57     10      0.2851          0.6804E+06
   4614      1     57     11      0.2857          0.6804E+06
   4615      1     57     12      0.2836          0.6804E+06
   4616      1     57     13      0.2715          0.6804E+06
   4617      1     57     14      0.2540          0.6804E+06
   4618      1     57     15      0.2299          0.6804E+06
   4619      1     57     16      0.2093          0.6804E+06
   4620      1     57     17      0.1891          0.6804E+06
   4621      1     57     18      0.1748          0.6804E+06
   4622      1     57     19      0.1672          0.6804E+06
   4623      1     57     20      0.1603          0.6804E+06
   4624      1     57     21      0.1507          0.6804E+06
   4625      1     57     22      0.1400          0.6804E+06
   4626      1     57     23      0.1263          0.6804E+06
   4627      1     57     24      0.1140          0.6804E+06
   4628      1     57     25      0.9739E-01      0.6804E+06
   4629      1     57     26      0.7617E-01      0.6804E+06
   4630      1     57     27      0.5181E-01      0.6804E+06
   4631      1     57     28      0.1336E-01      0.6804E+06
   4632      1     57     60       0.000          0.6804E+06
   4633      1     57     61       0.000          0.6804E+06
   4634      1     57     62       0.000          0.6804E+06
   4635      1     57     63       0.000          0.6804E+06
   4636      1     57     64       0.000          0.6804E+06
   4637      1     57     65       0.000          0.6804E+06
   4638      1     57     66       0.000          0.6804E+06
   4639      1     57     67       0.000          0.6804E+06
   4640      1     57     68       0.000          0.6804E+06
   4641      1     57     69       0.000          0.6804E+06
   4642      1     57     70       0.000          0.6804E+06
   4643      1     57     71       0.000          0.6804E+06
   4644      1     57     72       0.000          0.6804E+06
   4645      1     57     73       0.000          0.6804E+06
   4646      1     57     74       0.000          0.6804E+06
   4647      1     57     75       0.000          0.6804E+06
   4648      1     57     76       0.000          0.6804E+06
   4649      1     57     77       0.000          0.6804E+06
   4650      1     57     78       0.000          0.6804E+06
   4651      1     57     79       0.000          0.6804E+06
   4652      1     57     80       0.000          0.6804E+06
   4653      1     57     81      0.2049E-01      0.6804E+06
   4654      1     57     82      0.4031E-01      0.6804E+06
   4655      1     57     83      0.5477E-01      0.6804E+06
   4656      1     57     84      0.7030E-01      0.6804E+06
   4657      1     57     85      0.8112E-01      0.6804E+06
   4658      1     57     86      0.8956E-01      0.6804E+06
   4659      1     57     87      0.9740E-01      0.6804E+06
   4660      1     57     88      0.1041          0.6804E+06
   4661      1     57     89      0.1119          0.6804E+06
   4662      1     57     90      0.1193          0.6804E+06
   4663      1     57     91      0.1253          0.6804E+06
   4664      1     57     92      0.1307          0.6804E+06
   4665      1     57     93      0.1343          0.6804E+06
   4666      1     57     94      0.1375          0.6804E+06
   4667      1     57     95      0.1399          0.6804E+06
   4668      1     57     96      0.1416          0.6804E+06
   4669      1     57     97      0.1430          0.6804E+06
   4670      1     57     98      0.1441          0.6804E+06
   4671      1     57     99      0.1452          0.6804E+06
   4672      1     57    100      0.1453          0.6804E+06
   4673      1     58      1      0.6357          0.6804E+06
   4674      1     58      2      0.5398          0.6804E+06
   4675      1     58      3      0.4534          0.6804E+06
   4676      1     58      4      0.3633          0.6804E+06
   4677      1     58      5      0.3074          0.6804E+06
   4678      1     58      6      0.2914          0.6804E+06
   4679      1     58      7      0.2860          0.6804E+06
   4680      1     58      8      0.2850          0.6804E+06
   4681      1     58      9      0.2852          0.6804E+06
   4682      1     58     10      0.2853          0.6804E+06
   4683      1     58     11      0.2844          0.6804E+06
   4684      1     58     12      0.2801          0.6804E+06
   4685      1     58     13      0.2674          0.6804E+06
   4686      1     58     14      0.2503          0.6804E+06
   4687      1     58     15      0.2270          0.6804E+06
   4688      1     58     16      0.2072          0.6804E+06
   4689      1     58     17      0.1894          0.6804E+06
   4690      1     58     18      0.1784          0.6804E+06
   4691      1     58     19      0.1751          0.6804E+06
   4692      1     58     20      0.1748          0.6804E+06
   4693      1     58     21      0.1637          0.6804E+06
   4694      1     58     22      0.1485          0.6804E+06
   4695      1     58     23      0.1314          0.6804E+06
   4696      1     58     24      0.1192          0.6804E+06
   4697      1     58     25      0.1056          0.6804E+06
   4698      1     58     26      0.8914E-01      0.6804E+06
   4699      1     58     27      0.6916E-01      0.6804E+06
   4700      1     58     28      0.3482E-01      0.6804E+06
   4701      1     58     60       0.000          0.6804E+06
   4702      1     58     61       0.000          0.6804E+06
   4703      1     58     62       0.000          0.6804E+06
   4704      1     58     63       0.000          0.6804E+06
   4705      1     58     64       0.000          0.6804E+06
   4706      1     58     65       0.000          0.6804E+06
   4707      1     58     66       0.000          0.6804E+06
   4708      1     58     67       0.000          0.6804E+06
   4709      1     58     68       0.000          0.6804E+06
   4710      1     58     69       0.000          0.6804E+06
   4711      1     58     70       0.000          0.6804E+06
   4712      1     58     71       0.000          0.6804E+06
   4713      1     58     72       0.000          0.6804E+06
   4714      1     58     73       0.000          0.6804E+06
   4715      1     58     74       0.000          0.6804E+06
   4716      1     58     75       0.000          0.6804E+06
   4717      1     58     76       0.000          0.6804E+06
   4718      1     58     77       0.000          0.6804E+06
   4719      1     58     78       0.000          0.6804E+06
   4720      1     58     79       0.000          0.6804E+06
   4721      1     58     80       0.000          0.6804E+06
   4722      1     58     81      0.2124E-01      0.6804E+06
   4723      1     58     82      0.4235E-01      0.6804E+06
   4724      1     58     83      0.5872E-01      0.6804E+06
   4725      1     58     84      0.7556E-01      0.6804E+06
   4726      1     58     85      0.8743E-01      0.6804E+06
   4727      1     58     86      0.9713E-01      0.6804E+06
   4728      1     58     87      0.1062          0.6804E+06
   4729      1     58     88      0.1138          0.6804E+06
   4730      1     58     89      0.1227          0.6804E+06
   4731      1     58     90      0.1315          0.6804E+06
   4732      1     58     91      0.1380          0.6804E+06
   4733      1     58     92      0.1443          0.6804E+06
   4734      1     58     93      0.1488          0.6804E+06
   4735      1     58     94      0.1527          0.6804E+06
   4736      1     58     95      0.1560          0.6804E+06
   4737      1     58     96      0.1583          0.6804E+06
   4738      1     58     97      0.1603          0.6804E+06
   4739      1     58     98      0.1617          0.6804E+06
   4740      1     58     99      0.1629          0.6804E+06
   4741      1     58    100      0.1629          0.6804E+06
   4742      1     59      1      0.6494          0.6804E+06
   4743      1     59      2      0.5567          0.6804E+06
   4744      1     59      3      0.4732          0.6804E+06
   4745      1     59      4      0.3870          0.6804E+06
   4746      1     59      5      0.3298          0.6804E+06
   4747      1     59      6      0.3085          0.6804E+06
   4748      1     59      7      0.2980          0.6804E+06
   4749      1     59      8      0.2934          0.6804E+06
   4750      1     59      9      0.2909          0.6804E+06
   4751      1     59     10      0.2882          0.6804E+06
   4752      1     59     11      0.2849          0.6804E+06
   4753      1     59     12      0.2776          0.6804E+06
   4754      1     59     13      0.2639          0.6804E+06
   4755      1     59     14      0.2469          0.6804E+06
   4756      1     59     15      0.2236          0.6804E+06
   4757      1     59     16      0.2030          0.6804E+06
   4758      1     59     17      0.1850          0.6804E+06
   4759      1     59     18      0.1755          0.6804E+06
   4760      1     59     19      0.1749          0.6804E+06
   4761      1     59     20      0.1754          0.6804E+06
   4762      1     59     21      0.1638          0.6804E+06
   4763      1     59     22      0.1476          0.6804E+06
   4764      1     59     23      0.1293          0.6804E+06
   4765      1     59     24      0.1181          0.6804E+06
   4766      1     59     25      0.1070          0.6804E+06
   4767      1     59     26      0.9443E-01      0.6804E+06
   4768      1     59     27      0.7971E-01      0.6804E+06
   4769      1     59     28      0.5402E-01      0.6804E+06
   4770      1     59     61       0.000          0.6804E+06
   4771      1     59     62       0.000          0.6804E+06
   4772      1     59     63       0.000          0.6804E+06
   4773      1     59     64       0.000          0.6804E+06
   4774      1     59     65       0.000          0.6804E+06
   4775      1     59     66       0.000          0.6804E+06
   4776      1     59     67       0.000          0.6804E+06
   4777      1     59     68       0.000          0.6804E+06
   4778      1     59     69       0.000          0.6804E+06
   4779      1     59     70       0.000          0.6804E+06
   4780      1     59     71       0.000          0.6804E+06
   4781      1     59     72       0.000          0.6804E+06
   4782      1     59     73       0.000          0.6804E+06
   4783      1     59     74       0.000          0.6804E+06
   4784      1     59     75       0.000          0.6804E+06
   4785      1     59     76       0.000          0.6804E+06
   4786      1     59     77       0.000          0.6804E+06
   4787      1     59     78       0.000          0.6804E+06
   4788      1     59     79       0.000          0.6804E+06
   4789      1     59     80      0.1650E-02      0.6804E+06
   4790      1     59     81      0.2706E-01      0.6804E+06
   4791      1     59     82      0.4928E-01      0.6804E+06
   4792      1     59     83      0.6667E-01      0.6804E+06
   4793      1     59     84      0.8386E-01      0.6804E+06
   4794      1     59     85      0.9644E-01      0.6804E+06
   4795      1     59     86      0.1079          0.6804E+06
   4796      1     59     87      0.1176          0.6804E+06
   4797      1     59     88      0.1263          0.6804E+06
   4798      1     59     89      0.1368          0.6804E+06
   4799      1     59     90      0.1469          0.6804E+06
   4800      1     59     91      0.1541          0.6804E+06
   4801      1     59     92      0.1614          0.6804E+06
   4802      1     59     93      0.1668          0.6804E+06
   4803      1     59     94      0.1716          0.6804E+06
   4804      1     59     95      0.1757          0.6804E+06
   4805      1     59     96      0.1789          0.6804E+06
   4806      1     59     97      0.1816          0.6804E+06
   4807      1     59     98      0.1835          0.6804E+06
   4808      1     59     99      0.1850          0.6804E+06
   4809      1     59    100      0.1851          0.6804E+06
   4810      1     60      1      0.6688          0.6804E+06
   4811      1     60      2      0.5820          0.6804E+06
   4812      1     60      3      0.5054          0.6804E+06
   4813      1     60      4      0.4270          0.6804E+06
   4814      1     60      5      0.3690          0.6804E+06
   4815      1     60      6      0.3378          0.6804E+06
   4816      1     60      7      0.3171          0.6804E+06
   4817      1     60      8      0.3057          0.6804E+06
   4818      1     60      9      0.2989          0.6804E+06
   4819      1     60     10      0.2927          0.6804E+06
   4820      1     60     11      0.2873          0.6804E+06
   4821      1     60     12      0.2784          0.6804E+06
   4822      1     60     13      0.2638          0.6804E+06
   4823      1     60     14      0.2457          0.6804E+06
   4824      1     60     15      0.2212          0.6804E+06
   4825      1     60     16      0.1994          0.6804E+06
   4826      1     60     17      0.1803          0.6804E+06
   4827      1     60     18      0.1710          0.6804E+06
   4828      1     60     19      0.1713          0.6804E+06
   4829      1     60     20      0.1696          0.6804E+06
   4830      1     60     21      0.1578          0.6804E+06
   4831      1     60     22      0.1417          0.6804E+06
   4832      1     60     23      0.1228          0.6804E+06
   4833      1     60     24      0.1137          0.6804E+06
   4834      1     60     25      0.1050          0.6804E+06
   4835      1     60     26      0.9487E-01      0.6804E+06
   4836      1     60     27      0.8268E-01      0.6804E+06
   4837      1     60     28      0.6146E-01      0.6804E+06
   4838      1     60     61       0.000          0.6804E+06
   4839      1     60     62       0.000          0.6804E+06
   4840      1     60     63       0.000          0.6804E+06
   4841      1     60     64       0.000          0.6804E+06
   4842      1     60     65       0.000          0.6804E+06
   4843      1     60     66       0.000          0.6804E+06
   4844      1     60     67       0.000          0.6804E+06
   4845      1     60     68       0.000          0.6804E+06
   4846      1     60     69       0.000          0.6804E+06
   4847      1     60     70       0.000          0.6804E+06
   4848      1     60     71       0.000          0.6804E+06
   4849      1     60     72       0.000          0.6804E+06
   4850      1     60     73       0.000          0.6804E+06
   4851      1     60     74       0.000          0.6804E+06
   4852      1     60     75       0.000          0.6804E+06
   4853      1     60     76       0.000          0.6804E+06
   4854      1     60     77       0.000          0.6804E+06
   4855      1     60     78       0.000          0.6804E+06
   4856      1     60     79       0.000          0.6804E+06
   4857      1     60     80      0.1271E-01      0.6804E+06
   4858      1     60     81      0.3838E-01      0.6804E+06
   4859      1     60     82      0.6108E-01      0.6804E+06
   4860      1     60     83      0.7876E-01      0.6804E+06
   4861      1     60     84      0.9578E-01      0.6804E+06
   4862      1     60     85      0.1085          0.6804E+06
   4863      1     60     86      0.1211          0.6804E+06
   4864      1     60     87      0.1311          0.6804E+06
   4865      1     60     88      0.1402          0.6804E+06
   4866      1     60     89      0.1514          0.6804E+06
   4867      1     60     90      0.1617          0.6804E+06
   4868      1     60     91      0.1691          0.6804E+06
   4869      1     60     92      0.1767          0.6804E+06
   4870      1     60     93      0.1824          0.6804E+06
   4871      1     60     94      0.1876          0.6804E+06
   4872      1     60     95      0.1923          0.6804E+06
   4873      1     60     96      0.1959          0.6804E+06
   4874      1     60     97      0.1991          0.6804E+06
   4875      1     60     98      0.2014          0.6804E+06
   4876      1     60     99      0.2032          0.6804E+06
   4877      1     60    100      0.2035          0.6804E+06
   4878      1     61      1      0.6976          0.6804E+06
   4879      1     61      2      0.6178          0.6804E+06
   4880      1     61      3      0.5477          0.6804E+06
   4881      1     61      4      0.4742          0.6804E+06
   4882      1     61      5      0.4134          0.6804E+06
   4883      1     61      6      0.3726          0.6804E+06
   4884      1     61      7      0.3405          0.6804E+06
   4885      1     61      8      0.3211          0.6804E+06
   4886      1     61      9      0.3091          0.6804E+06
   4887      1     61     10      0.2979          0.6804E+06
   4888      1     61     11      0.2905          0.6804E+06
   4889      1     61     12      0.2818          0.6804E+06
   4890      1     61     13      0.2666          0.6804E+06
   4891      1     61     14      0.2464          0.6804E+06
   4892      1     61     15      0.2205          0.6804E+06
   4893      1     61     16      0.1984          0.6804E+06
   4894      1     61     17      0.1790          0.6804E+06
   4895      1     61     18      0.1690          0.6804E+06
   4896      1     61     19      0.1679          0.6804E+06
   4897      1     61     20      0.1635          0.6804E+06
   4898      1     61     21      0.1507          0.6804E+06
   4899      1     61     22      0.1343          0.6804E+06
   4900      1     61     23      0.1152          0.6804E+06
   4901      1     61     24      0.1078          0.6804E+06
   4902      1     61     25      0.1013          0.6804E+06
   4903      1     61     26      0.9303E-01      0.6804E+06
   4904      1     61     27      0.8277E-01      0.6804E+06
   4905      1     61     28      0.6609E-01      0.6804E+06
   4906      1     61     61       0.000          0.6804E+06
   4907      1     61     62       0.000          0.6804E+06
   4908      1     61     63       0.000          0.6804E+06
   4909      1     61     64       0.000          0.6804E+06
   4910      1     61     65       0.000          0.6804E+06
   4911      1     61     66       0.000          0.6804E+06
   4912      1     61     67       0.000          0.6804E+06
   4913      1     61     68       0.000          0.6804E+06
   4914      1     61     69       0.000          0.6804E+06
   4915      1     61     70       0.000          0.6804E+06
   4916      1     61     71       0.000          0.6804E+06
   4917      1     61     72       0.000          0.6804E+06
   4918      1     61     73       0.000          0.6804E+06
   4919      1     61     74       0.000          0.6804E+06
   4920      1     61     75       0.000          0.6804E+06
   4921      1     61     76       0.000          0.6804E+06
   4922      1     61     77       0.000          0.6804E+06
   4923      1     61     78       0.000          0.6804E+06
   4924      1     61     79      0.3636E-02      0.6804E+06
   4925      1     61     80      0.3003E-01      0.6804E+06
   4926      1     61     81      0.5554E-01      0.6804E+06
   4927      1     61     82      0.7794E-01      0.6804E+06
   4928      1     61     83      0.9543E-01      0.6804E+06
   4929      1     61     84      0.1124          0.6804E+06
   4930      1     61     85      0.1255          0.6804E+06
   4931      1     61     86      0.1392          0.6804E+06
   4932      1     61     87      0.1499          0.6804E+06
   4933      1     61     88      0.1593          0.6804E+06
   4934      1     61     89      0.1704          0.6804E+06
   4935      1     61     90      0.1802          0.6804E+06
   4936      1     61     91      0.1875          0.6804E+06
   4937      1     61     92      0.1949          0.6804E+06
   4938      1     61     93      0.2007          0.6804E+06
   4939      1     61     94      0.2062          0.6804E+06
   4940      1     61     95      0.2114          0.6804E+06
   4941      1     61     96      0.2155          0.6804E+06
   4942      1     61     97      0.2193          0.6804E+06
   4943      1     61     98      0.2220          0.6804E+06
   4944      1     61     99      0.2241          0.6804E+06
   4945      1     61    100      0.2246          0.6804E+06
   4946      1     62      1      0.7240          0.6804E+06
   4947      1     62      2      0.6493          0.6804E+06
   4948      1     62      3      0.5830          0.6804E+06
   4949      1     62      4      0.5107          0.6804E+06
   4950      1     62      5      0.4463          0.6804E+06
   4951      1     62      6      0.3983          0.6804E+06
   4952      1     62      7      0.3567          0.6804E+06
   4953      1     62      8      0.3291          0.6804E+06
   4954      1     62      9      0.3119          0.6804E+06
   4955      1     62     10      0.2971          0.6804E+06
   4956      1     62     11      0.2883          0.6804E+06
   4957      1     62     12      0.2802          0.6804E+06
   4958      1     62     13      0.2656          0.6804E+06
   4959      1     62     14      0.2444          0.6804E+06
   4960      1     62     15      0.2195          0.6804E+06
   4961      1     62     16      0.2002          0.6804E+06
   4962      1     62     17      0.1834          0.6804E+06
   4963      1     62     18      0.1738          0.6804E+06
   4964      1     62     19      0.1698          0.6804E+06
   4965      1     62     20      0.1632          0.6804E+06
   4966      1     62     21      0.1495          0.6804E+06
   4967      1     62     22      0.1331          0.6804E+06
   4968      1     62     23      0.1147          0.6804E+06
   4969      1     62     24      0.1041          0.6804E+06
   4970      1     62     25      0.9581E-01      0.6804E+06
   4971      1     62     26      0.8906E-01      0.6804E+06
   4972      1     62     27      0.8189E-01      0.6804E+06
   4973      1     62     28      0.7195E-01      0.6804E+06
   4974      1     62     62       0.000          0.6804E+06
   4975      1     62     63       0.000          0.6804E+06
   4976      1     62     64       0.000          0.6804E+06
   4977      1     62     65       0.000          0.6804E+06
   4978      1     62     66       0.000          0.6804E+06
   4979      1     62     67       0.000          0.6804E+06
   4980      1     62     68       0.000          0.6804E+06
   4981      1     62     69       0.000          0.6804E+06
   4982      1     62     70       0.000          0.6804E+06
   4983      1     62     71       0.000          0.6804E+06
   4984      1     62     72       0.000          0.6804E+06
   4985      1     62     73       0.000          0.6804E+06
   4986      1     62     74       0.000          0.6804E+06
   4987      1     62     75       0.000          0.6804E+06
   4988      1     62     76       0.000          0.6804E+06
   4989      1     62     77       0.000          0.6804E+06
   4990      1     62     78       0.000          0.6804E+06
   4991      1     62     79      0.2687E-01      0.6804E+06
   4992      1     62     80      0.5086E-01      0.6804E+06
   4993      1     62     81      0.7451E-01      0.6804E+06
   4994      1     62     82      0.9576E-01      0.6804E+06
   4995      1     62     83      0.1131          0.6804E+06
   4996      1     62     84      0.1301          0.6804E+06
   4997      1     62     85      0.1434          0.6804E+06
   4998      1     62     86      0.1578          0.6804E+06
   4999      1     62     87      0.1699          0.6804E+06
   5000      1     62     88      0.1792          0.6804E+06
   5001      1     62     89      0.1893          0.6804E+06
   5002      1     62     90      0.1978          0.6804E+06
   5003      1     62     91      0.2042          0.6804E+06
   5004      1     62     92      0.2111          0.6804E+06
   5005      1     62     93      0.2166          0.6804E+06
   5006      1     62     94      0.2222          0.6804E+06
   5007      1     62     95      0.2277          0.6804E+06
   5008      1     62     96      0.2323          0.6804E+06
   5009      1     62     97      0.2367          0.6804E+06
   5010      1     62     98      0.2399          0.6804E+06
   5011      1     62     99      0.2420          0.6804E+06
   5012      1     62    100      0.2425          0.6804E+06
   5013      1     63      1      0.7647          0.6804E+06
   5014      1     63      2      0.6953          0.6804E+06
   5015      1     63      3      0.6322          0.6804E+06
   5016      1     63      4      0.5590          0.6804E+06
   5017      1     63      5      0.4875          0.6804E+06
   5018      1     63      6      0.4283          0.6804E+06
   5019      1     63      7      0.3718          0.6804E+06
   5020      1     63      8      0.3312          0.6804E+06
   5021      1     63      9      0.3063          0.6804E+06
   5022      1     63     10      0.2882          0.6804E+06
   5023      1     63     11      0.2781          0.6804E+06
   5024      1     63     12      0.2691          0.6804E+06
   5025      1     63     13      0.2554          0.6804E+06
   5026      1     63     14      0.2363          0.6804E+06
   5027      1     63     15      0.2153          0.6804E+06
   5028      1     63     16      0.2003          0.6804E+06
   5029      1     63     17      0.1874          0.6804E+06
   5030      1     63     18      0.1789          0.6804E+06
   5031      1     63     19      0.1732          0.6804E+06
   5032      1     63     20      0.1645          0.6804E+06
   5033      1     63     21      0.1499          0.6804E+06
   5034      1     63     22      0.1328          0.6804E+06
   5035      1     63     23      0.1128          0.6804E+06
   5036      1     63     24      0.9874E-01      0.6804E+06
   5037      1     63     25      0.8765E-01      0.6804E+06
   5038      1     63     26      0.8152E-01      0.6804E+06
   5039      1     63     27      0.7855E-01      0.6804E+06
   5040      1     63     28      0.7447E-01      0.6804E+06
   5041      1     63     29      0.6772E-01      0.6804E+06
   5042      1     63     62       0.000          0.6804E+06
   5043      1     63     63       0.000          0.6804E+06
   5044      1     63     64       0.000          0.6804E+06
   5045      1     63     65       0.000          0.6804E+06
   5046      1     63     66       0.000          0.6804E+06
   5047      1     63     67       0.000          0.6804E+06
   5048      1     63     68       0.000          0.6804E+06
   5049      1     63     69       0.000          0.6804E+06
   5050      1     63     70       0.000          0.6804E+06
   5051      1     63     71       0.000          0.6804E+06
   5052      1     63     72       0.000          0.6804E+06
   5053      1     63     73       0.000          0.6804E+06
   5054      1     63     74       0.000          0.6804E+06
   5055      1     63     75       0.000          0.6804E+06
   5056      1     63     76       0.000          0.6804E+06
   5057      1     63     77       0.000          0.6804E+06
   5058      1     63     78      0.3195E-01      0.6804E+06
   5059      1     63     79      0.5937E-01      0.6804E+06
   5060      1     63     80      0.7975E-01      0.6804E+06
   5061      1     63     81      0.1004          0.6804E+06
   5062      1     63     82      0.1196          0.6804E+06
   5063      1     63     83      0.1355          0.6804E+06
   5064      1     63     84      0.1520          0.6804E+06
   5065      1     63     85      0.1655          0.6804E+06
   5066      1     63     86      0.1807          0.6804E+06
   5067      1     63     87      0.1938          0.6804E+06
   5068      1     63     88      0.2029          0.6804E+06
   5069      1     63     89      0.2111          0.6804E+06
   5070      1     63     90      0.2174          0.6804E+06
   5071      1     63     91      0.2226          0.6804E+06
   5072      1     63     92      0.2287          0.6804E+06
   5073      1     63     93      0.2339          0.6804E+06
   5074      1     63     94      0.2395          0.6804E+06
   5075      1     63     95      0.2455          0.6804E+06
   5076      1     63     96      0.2505          0.6804E+06
   5077      1     63     97      0.2555          0.6804E+06
   5078      1     63     98      0.2592          0.6804E+06
   5079      1     63     99      0.2613          0.6804E+06
   5080      1     63    100      0.2618          0.6804E+06
   5081      1     64      1      0.8053          0.6804E+06
   5082      1     64      2      0.7400          0.6804E+06
   5083      1     64      3      0.6788          0.6804E+06
   5084      1     64      4      0.6036          0.6804E+06
   5085      1     64      5      0.5239          0.6804E+06
   5086      1     64      6      0.4526          0.6804E+06
   5087      1     64      7      0.3795          0.6804E+06
   5088      1     64      8      0.3251          0.6804E+06
   5089      1     64      9      0.2936          0.6804E+06
   5090      1     64     10      0.2744          0.6804E+06
   5091      1     64     11      0.2630          0.6804E+06
   5092      1     64     12      0.2510          0.6804E+06
   5093      1     64     13      0.2376          0.6804E+06
   5094      1     64     14      0.2234          0.6804E+06
   5095      1     64     15      0.2076          0.6804E+06
   5096      1     64     16      0.1967          0.6804E+06
   5097      1     64     17      0.1875          0.6804E+06
   5098      1     64     18      0.1814          0.6804E+06
   5099      1     64     19      0.1768          0.6804E+06
   5100      1     64     20      0.1680          0.6804E+06
   5101      1     64     21      0.1524          0.6804E+06
   5102      1     64     22      0.1333          0.6804E+06
   5103      1     64     23      0.1095          0.6804E+06
   5104      1     64     24      0.9132E-01      0.6804E+06
   5105      1     64     25      0.7684E-01      0.6804E+06
   5106      1     64     26      0.7106E-01      0.6804E+06
   5107      1     64     27      0.7188E-01      0.6804E+06
   5108      1     64     28      0.7394E-01      0.6804E+06
   5109      1     64     29      0.7391E-01      0.6804E+06
   5110      1     64     30      0.6714E-01      0.6804E+06
   5111      1     64     62       0.000          0.6804E+06
   5112      1     64     63       0.000          0.6804E+06
   5113      1     64     64       0.000          0.6804E+06
   5114      1     64     65       0.000          0.6804E+06
   5115      1     64     66       0.000          0.6804E+06
   5116      1     64     67       0.000          0.6804E+06
   5117      1     64     68       0.000          0.6804E+06
   5118      1     64     69       0.000          0.6804E+06
   5119      1     64     70       0.000          0.6804E+06
   5120      1     64     71       0.000          0.6804E+06
   5121      1     64     72       0.000          0.6804E+06
   5122      1     64     73       0.000          0.6804E+06
   5123      1     64     74       0.000          0.6804E+06
   5124      1     64     75       0.000          0.6804E+06
   5125      1     64     76      0.2230E-01      0.6804E+06
   5126      1     64     77      0.4549E-01      0.6804E+06
   5127      1     64     78      0.7268E-01      0.6804E+06
   5128      1     64     79      0.9491E-01      0.6804E+06
   5129      1     64     80      0.1114          0.6804E+06
   5130      1     64     81      0.1289          0.6804E+06
   5131      1     64     82      0.1457          0.6804E+06
   5132      1     64     83      0.1592          0.6804E+06
   5133      1     64     84      0.1739          0.6804E+06
   5134      1     64     85      0.1874          0.6804E+06
   5135      1     64     86      0.2027          0.6804E+06
   5136      1     64     87      0.2166          0.6804E+06
   5137      1     64     88      0.2251          0.6804E+06
   5138      1     64     89      0.2313          0.6804E+06
   5139      1     64     90      0.2360          0.6804E+06
   5140      1     64     91      0.2402          0.6804E+06
   5141      1     64     92      0.2454          0.6804E+06
   5142      1     64     93      0.2502          0.6804E+06
   5143      1     64     94      0.2557          0.6804E+06
   5144      1     64     95      0.2617          0.6804E+06
   5145      1     64     96      0.2668          0.6804E+06
   5146      1     64     97      0.2718          0.6804E+06
   5147      1     64     98      0.2755          0.6804E+06
   5148      1     64     99      0.2779          0.6804E+06
   5149      1     64    100      0.2789          0.6804E+06
   5150      1     65      1      0.8433          0.6804E+06
   5151      1     65      2      0.7804          0.6804E+06
   5152      1     65      3      0.7192          0.6804E+06
   5153      1     65      4      0.6415          0.6804E+06
   5154      1     65      5      0.5560          0.6804E+06
   5155      1     65      6      0.4755          0.6804E+06
   5156      1     65      7      0.3853          0.6804E+06
   5157      1     65      8      0.3184          0.6804E+06
   5158      1     65      9      0.2833          0.6804E+06
   5159      1     65     10      0.2655          0.6804E+06
   5160      1     65     11      0.2530          0.6804E+06
   5161      1     65     12      0.2388          0.6804E+06
   5162      1     65     13      0.2247          0.6804E+06
   5163      1     65     14      0.2122          0.6804E+06
   5164      1     65     15      0.1992          0.6804E+06
   5165      1     65     16      0.1906          0.6804E+06
   5166      1     65     17      0.1839          0.6804E+06
   5167      1     65     18      0.1807          0.6804E+06
   5168      1     65     19      0.1793          0.6804E+06
   5169      1     65     20      0.1725          0.6804E+06
   5170      1     65     21      0.1564          0.6804E+06
   5171      1     65     22      0.1344          0.6804E+06
   5172      1     65     23      0.1070          0.6804E+06
   5173      1     65     24      0.8469E-01      0.6804E+06
   5174      1     65     25      0.6673E-01      0.6804E+06
   5175      1     65     26      0.6113E-01      0.6804E+06
   5176      1     65     27      0.6565E-01      0.6804E+06
   5177      1     65     28      0.7254E-01      0.6804E+06
   5178      1     65     29      0.7758E-01      0.6804E+06
   5179      1     65     30      0.7604E-01      0.6804E+06
   5180      1     65     62       0.000          0.6804E+06
   5181      1     65     63       0.000          0.6804E+06
   5182      1     65     64       0.000          0.6804E+06
   5183      1     65     65       0.000          0.6804E+06
   5184      1     65     66       0.000          0.6804E+06
   5185      1     65     67       0.000          0.6804E+06
   5186      1     65     68       0.000          0.6804E+06
   5187      1     65     69       0.000          0.6804E+06
   5188      1     65     70       0.000          0.6804E+06
   5189      1     65     71       0.000          0.6804E+06
   5190      1     65     72       0.000          0.6804E+06
   5191      1     65     73       0.000          0.6804E+06
   5192      1     65     74       0.000          0.6804E+06
   5193      1     65     75      0.1949E-01      0.6804E+06
   5194      1     65     76      0.7660E-01      0.6804E+06
   5195      1     65     77      0.9054E-01      0.6804E+06
   5196      1     65     78      0.1097          0.6804E+06
   5197      1     65     79      0.1260          0.6804E+06
   5198      1     65     80      0.1387          0.6804E+06
   5199      1     65     81      0.1538          0.6804E+06
   5200      1     65     82      0.1687          0.6804E+06
   5201      1     65     83      0.1797          0.6804E+06
   5202      1     65     84      0.1924          0.6804E+06
   5203      1     65     85      0.2052          0.6804E+06
   5204      1     65     86      0.2200          0.6804E+06
   5205      1     65     87      0.2335          0.6804E+06
   5206      1     65     88      0.2415          0.6804E+06
   5207      1     65     89      0.2465          0.6804E+06
   5208      1     65     90      0.2506          0.6804E+06
   5209      1     65     91      0.2542          0.6804E+06
   5210      1     65     92      0.2589          0.6804E+06
   5211      1     65     93      0.2634          0.6804E+06
   5212      1     65     94      0.2688          0.6804E+06
   5213      1     65     95      0.2745          0.6804E+06
   5214      1     65     96      0.2797          0.6804E+06
   5215      1     65     97      0.2849          0.6804E+06
   5216      1     65     98      0.2884          0.6804E+06
   5217      1     65     99      0.2909          0.6804E+06
   5218      1     65    100      0.2919          0.6804E+06
   5219      1     66      1      0.8893          0.6804E+06
   5220      1     66      2      0.8288          0.6804E+06
   5221      1     66      3      0.7675          0.6804E+06
   5222      1     66      4      0.6887          0.6804E+06
   5223      1     66      5      0.6005          0.6804E+06
   5224      1     66      6      0.5151          0.6804E+06
   5225      1     66      7      0.4139          0.6804E+06
   5226      1     66      8      0.3369          0.6804E+06
   5227      1     66      9      0.2959          0.6804E+06
   5228      1     66     10      0.2720          0.6804E+06
   5229      1     66     11      0.2530          0.6804E+06
   5230      1     66     12      0.2326          0.6804E+06
   5231      1     66     13      0.2150          0.6804E+06
   5232      1     66     14      0.2025          0.6804E+06
   5233      1     66     15      0.1906          0.6804E+06
   5234      1     66     16      0.1828          0.6804E+06
   5235      1     66     17      0.1773          0.6804E+06
   5236      1     66     18      0.1770          0.6804E+06
   5237      1     66     19      0.1794          0.6804E+06
   5238      1     66     20      0.1761          0.6804E+06
   5239      1     66     21      0.1606          0.6804E+06
   5240      1     66     22      0.1362          0.6804E+06
   5241      1     66     23      0.1063          0.6804E+06
   5242      1     66     24      0.8042E-01      0.6804E+06
   5243      1     66     25      0.5877E-01      0.6804E+06
   5244      1     66     26      0.5290E-01      0.6804E+06
   5245      1     66     27      0.6109E-01      0.6804E+06
   5246      1     66     28      0.7134E-01      0.6804E+06
   5247      1     66     29      0.8049E-01      0.6804E+06
   5248      1     66     30      0.8453E-01      0.6804E+06
   5249      1     66     64       0.000          0.6804E+06
   5250      1     66     65       0.000          0.6804E+06
   5251      1     66     66       0.000          0.6804E+06
   5252      1     66     67       0.000          0.6804E+06
   5253      1     66     68       0.000          0.6804E+06
   5254      1     66     69       0.000          0.6804E+06
   5255      1     66     70       0.000          0.6804E+06
   5256      1     66     71       0.000          0.6804E+06
   5257      1     66     72       0.000          0.6804E+06
   5258      1     66     73       0.000          0.6804E+06
   5259      1     66     74      0.1345E-01      0.6804E+06
   5260      1     66     75      0.6491E-01      0.6804E+06
   5261      1     66     76      0.1138          0.6804E+06
   5262      1     66     77      0.1313          0.6804E+06
   5263      1     66     78      0.1469          0.6804E+06
   5264      1     66     79      0.1595          0.6804E+06
   5265      1     66     80      0.1696          0.6804E+06
   5266      1     66     81      0.1816          0.6804E+06
   5267      1     66     82      0.1930          0.6804E+06
   5268      1     66     83      0.2018          0.6804E+06
   5269      1     66     84      0.2123          0.6804E+06
   5270      1     66     85      0.2237          0.6804E+06
   5271      1     66     86      0.2367          0.6804E+06
   5272      1     66     87      0.2476          0.6804E+06
   5273      1     66     88      0.2547          0.6804E+06
   5274      1     66     89      0.2601          0.6804E+06
   5275      1     66     90      0.2645          0.6804E+06
   5276      1     66     91      0.2680          0.6804E+06
   5277      1     66     92      0.2724          0.6804E+06
   5278      1     66     93      0.2766          0.6804E+06
   5279      1     66     94      0.2818          0.6804E+06
   5280      1     66     95      0.2876          0.6804E+06
   5281      1     66     96      0.2929          0.6804E+06
   5282      1     66     97      0.2984          0.6804E+06
   5283      1     66     98      0.3019          0.6804E+06
   5284      1     66     99      0.3039          0.6804E+06
   5285      1     66    100      0.3045          0.6804E+06
   5286      1     67      1      0.9378          0.6804E+06
   5287      1     67      2      0.8798          0.6804E+06
   5288      1     67      3      0.8201          0.6804E+06
   5289      1     67      4      0.7431          0.6804E+06
   5290      1     67      5      0.6568          0.6804E+06
   5291      1     67      6      0.5729          0.6804E+06
   5292      1     67      7      0.4731          0.6804E+06
   5293      1     67      8      0.3918          0.6804E+06
   5294      1     67      9      0.3410          0.6804E+06
   5295      1     67     10      0.2998          0.6804E+06
   5296      1     67     11      0.2668          0.6804E+06
   5297      1     67     12      0.2348          0.6804E+06
   5298      1     67     13      0.2115          0.6804E+06
   5299      1     67     14      0.1983          0.6804E+06
   5300      1     67     15      0.1866          0.6804E+06
   5301      1     67     16      0.1779          0.6804E+06
   5302      1     67     17      0.1716          0.6804E+06
   5303      1     67     18      0.1729          0.6804E+06
   5304      1     67     19      0.1760          0.6804E+06
   5305      1     67     20      0.1729          0.6804E+06
   5306      1     67     21      0.1588          0.6804E+06
   5307      1     67     22      0.1373          0.6804E+06
   5308      1     67     23      0.1092          0.6804E+06
   5309      1     67     24      0.8535E-01      0.6804E+06
   5310      1     67     25      0.6494E-01      0.6804E+06
   5311      1     67     26      0.5779E-01      0.6804E+06
   5312      1     67     27      0.6287E-01      0.6804E+06
   5313      1     67     28      0.7176E-01      0.6804E+06
   5314      1     67     29      0.8205E-01      0.6804E+06
   5315      1     67     30      0.8959E-01      0.6804E+06
   5316      1     67     31      0.8928E-01      0.6804E+06
   5317      1     67     66       0.000          0.6804E+06
   5318      1     67     67       0.000          0.6804E+06
   5319      1     67     68       0.000          0.6804E+06
   5320      1     67     69       0.000          0.6804E+06
   5321      1     67     70       0.000          0.6804E+06
   5322      1     67     71       0.000          0.6804E+06
   5323      1     67     72       0.000          0.6804E+06
   5324      1     67     73      0.1480E-01      0.6804E+06
   5325      1     67     74      0.6347E-01      0.6804E+06
   5326      1     67     75      0.1037          0.6804E+06
   5327      1     67     76      0.1422          0.6804E+06
   5328      1     67     77      0.1633          0.6804E+06
   5329      1     67     78      0.1782          0.6804E+06
   5330      1     67     79      0.1892          0.6804E+06
   5331      1     67     80      0.1978          0.6804E+06
   5332      1     67     81      0.2072          0.6804E+06
   5333      1     67     82      0.2164          0.6804E+06
   5334      1     67     83      0.2231          0.6804E+06
   5335      1     67     84      0.2308          0.6804E+06
   5336      1     67     85      0.2400          0.6804E+06
   5337      1     67     86      0.2510          0.6804E+06
   5338      1     67     87      0.2601          0.6804E+06
   5339      1     67     88      0.2662          0.6804E+06
   5340      1     67     89      0.2714          0.6804E+06
   5341      1     67     90      0.2756          0.6804E+06
   5342      1     67     91      0.2790          0.6804E+06
   5343      1     67     92      0.2833          0.6804E+06
   5344      1     67     93      0.2874          0.6804E+06
   5345      1     67     94      0.2925          0.6804E+06
   5346      1     67     95      0.2982          0.6804E+06
   5347      1     67     96      0.3037          0.6804E+06
   5348      1     67     97      0.3095          0.6804E+06
   5349      1     67     98      0.3132          0.6804E+06
   5350      1     67     99      0.3144          0.6804E+06
   5351      1     67    100      0.3145          0.6804E+06
   5352      1     68      1      0.9804          0.6804E+06
   5353      1     68      2      0.9247          0.6804E+06
   5354      1     68      3      0.8686          0.6804E+06
   5355      1     68      4      0.7966          0.6804E+06
   5356      1     68      5      0.7156          0.6804E+06
   5357      1     68      6      0.6375          0.6804E+06
   5358      1     68      7      0.5474          0.6804E+06
   5359      1     68      8      0.4666          0.6804E+06
   5360      1     68      9      0.4044          0.6804E+06
   5361      1     68     10      0.3407          0.6804E+06
   5362      1     68     11      0.2907          0.6804E+06
   5363      1     68     12      0.2450          0.6804E+06
   5364      1     68     13      0.2151          0.6804E+06
   5365      1     68     14      0.2005          0.6804E+06
   5366      1     68     15      0.1885          0.6804E+06
   5367      1     68     16      0.1797          0.6804E+06
   5368      1     68     17      0.1732          0.6804E+06
   5369      1     68     18      0.1745          0.6804E+06
   5370      1     68     19      0.1764          0.6804E+06
   5371      1     68     20      0.1722          0.6804E+06
   5372      1     68     21      0.1587          0.6804E+06
   5373      1     68     22      0.1395          0.6804E+06
   5374      1     68     23      0.1139          0.6804E+06
   5375      1     68     24      0.9218E-01      0.6804E+06
   5376      1     68     25      0.7264E-01      0.6804E+06
   5377      1     68     26      0.6355E-01      0.6804E+06
   5378      1     68     27      0.6583E-01      0.6804E+06
   5379      1     68     28      0.7308E-01      0.6804E+06
   5380      1     68     29      0.8215E-01      0.6804E+06
   5381      1     68     30      0.8946E-01      0.6804E+06
   5382      1     68     68       0.000          0.6804E+06
   5383      1     68     69       0.000          0.6804E+06
   5384      1     68     70       0.000          0.6804E+06
   5385      1     68     71       0.000          0.6804E+06
   5386      1     68     72      0.2050E-01      0.6804E+06
   5387      1     68     73      0.5891E-01      0.6804E+06
   5388      1     68     74      0.1021          0.6804E+06
   5389      1     68     75      0.1364          0.6804E+06
   5390      1     68     76      0.1685          0.6804E+06
   5391      1     68     77      0.1877          0.6804E+06
   5392      1     68     78      0.2019          0.6804E+06
   5393      1     68     79      0.2123          0.6804E+06
   5394      1     68     80      0.2198          0.6804E+06
   5395      1     68     81      0.2275          0.6804E+06
   5396      1     68     82      0.2350          0.6804E+06
   5397      1     68     83      0.2402          0.6804E+06
   5398      1     68     84      0.2459          0.6804E+06
   5399      1     68     85      0.2531          0.6804E+06
   5400      1     68     86      0.2623          0.6804E+06
   5401      1     68     87      0.2701          0.6804E+06
   5402      1     68     88      0.2754          0.6804E+06
   5403      1     68     89      0.2797          0.6804E+06
   5404      1     68     90      0.2836          0.6804E+06
   5405      1     68     91      0.2869          0.6804E+06
   5406      1     68     92      0.2909          0.6804E+06
   5407      1     68     93      0.2948          0.6804E+06
   5408      1     68     94      0.2997          0.6804E+06
   5409      1     68     95      0.3052          0.6804E+06
   5410      1     68     96      0.3103          0.6804E+06
   5411      1     68     97      0.3156          0.6804E+06
   5412      1     68     98      0.3190          0.6804E+06
   5413      1     68     99      0.3204          0.6804E+06
   5414      1     68    100      0.3206          0.6804E+06
   5415      1     69      1       1.019          0.6804E+06
   5416      1     69      2      0.9688          0.6804E+06
   5417      1     69      3      0.9209          0.6804E+06
   5418      1     69      4      0.8591          0.6804E+06
   5419      1     69      5      0.7854          0.6804E+06
   5420      1     69      6      0.7143          0.6804E+06
   5421      1     69      7      0.6333          0.6804E+06
   5422      1     69      8      0.5542          0.6804E+06
   5423      1     69      9      0.4827          0.6804E+06
   5424      1     69     10      0.3975          0.6804E+06
   5425      1     69     11      0.3301          0.6804E+06
   5426      1     69     12      0.2690          0.6804E+06
   5427      1     69     13      0.2299          0.6804E+06
   5428      1     69     14      0.2118          0.6804E+06
   5429      1     69     15      0.1989          0.6804E+06
   5430      1     69     16      0.1910          0.6804E+06
   5431      1     69     17      0.1856          0.6804E+06
   5432      1     69     18      0.1847          0.6804E+06
   5433      1     69     19      0.1841          0.6804E+06
   5434      1     69     20      0.1779          0.6804E+06
   5435      1     69     21      0.1637          0.6804E+06
   5436      1     69     22      0.1446          0.6804E+06
   5437      1     69     23      0.1205          0.6804E+06
   5438      1     69     24      0.1003          0.6804E+06
   5439      1     69     25      0.8040E-01      0.6804E+06
   5440      1     69     26      0.6800E-01      0.6804E+06
   5441      1     69     27      0.6869E-01      0.6804E+06
   5442      1     69     28      0.7510E-01      0.6804E+06
   5443      1     69     29      0.8276E-01      0.6804E+06
   5444      1     69     30      0.8854E-01      0.6804E+06
   5445      1     69     70      0.2206E-01      0.6804E+06
   5446      1     69     71      0.4476E-01      0.6804E+06
   5447      1     69     72      0.7024E-01      0.6804E+06
   5448      1     69     73      0.1049          0.6804E+06
   5449      1     69     74      0.1407          0.6804E+06
   5450      1     69     75      0.1691          0.6804E+06
   5451      1     69     76      0.1961          0.6804E+06
   5452      1     69     77      0.2139          0.6804E+06
   5453      1     69     78      0.2266          0.6804E+06
   5454      1     69     79      0.2356          0.6804E+06
   5455      1     69     80      0.2419          0.6804E+06
   5456      1     69     81      0.2478          0.6804E+06
   5457      1     69     82      0.2529          0.6804E+06
   5458      1     69     83      0.2568          0.6804E+06
   5459      1     69     84      0.2613          0.6804E+06
   5460      1     69     85      0.2668          0.6804E+06
   5461      1     69     86      0.2738          0.6804E+06
   5462      1     69     87      0.2799          0.6804E+06
   5463      1     69     88      0.2842          0.6804E+06
   5464      1     69     89      0.2875          0.6804E+06
   5465      1     69     90      0.2910          0.6804E+06
   5466      1     69     91      0.2939          0.6804E+06
   5467      1     69     92      0.2977          0.6804E+06
   5468      1     69     93      0.3013          0.6804E+06
   5469      1     69     94      0.3057          0.6804E+06
   5470      1     69     95      0.3107          0.6804E+06
   5471      1     69     96      0.3151          0.6804E+06
   5472      1     69     97      0.3197          0.6804E+06
   5473      1     69     98      0.3226          0.6804E+06
   5474      1     69     99      0.3242          0.6804E+06
   5475      1     69    100      0.3248          0.6804E+06
   5476      1     70      1       1.039          0.6804E+06
   5477      1     70      2      0.9961          0.6804E+06
   5478      1     70      3      0.9560          0.6804E+06
   5479      1     70      4      0.9038          0.6804E+06
   5480      1     70      5      0.8388          0.6804E+06
   5481      1     70      6      0.7754          0.6804E+06
   5482      1     70      7      0.7007          0.6804E+06
   5483      1     70      8      0.6222          0.6804E+06
   5484      1     70      9      0.5448          0.6804E+06
   5485      1     70     10      0.4475          0.6804E+06
   5486      1     70     11      0.3687          0.6804E+06
   5487      1     70     12      0.2960          0.6804E+06
   5488      1     70     13      0.2494          0.6804E+06
   5489      1     70     14      0.2283          0.6804E+06
   5490      1     70     15      0.2144          0.6804E+06
   5491      1     70     16      0.2064          0.6804E+06
   5492      1     70     17      0.2007          0.6804E+06
   5493      1     70     18      0.1982          0.6804E+06
   5494      1     70     19      0.1961          0.6804E+06
   5495      1     70     20      0.1884          0.6804E+06
   5496      1     70     21      0.1725          0.6804E+06
   5497      1     70     22      0.1517          0.6804E+06
   5498      1     70     23      0.1269          0.6804E+06
   5499      1     70     24      0.1067          0.6804E+06
   5500      1     70     25      0.8626E-01      0.6804E+06
   5501      1     70     26      0.7133E-01      0.6804E+06
   5502      1     70     27      0.7160E-01      0.6804E+06
   5503      1     70     28      0.7754E-01      0.6804E+06
   5504      1     70     29      0.8380E-01      0.6804E+06
   5505      1     70     30      0.8768E-01      0.6804E+06
   5506      1     70     72      0.1065          0.6804E+06
   5507      1     70     73      0.1390          0.6804E+06
   5508      1     70     74      0.1710          0.6804E+06
   5509      1     70     75      0.1963          0.6804E+06
   5510      1     70     76      0.2208          0.6804E+06
   5511      1     70     77      0.2365          0.6804E+06
   5512      1     70     78      0.2472          0.6804E+06
   5513      1     70     79      0.2544          0.6804E+06
   5514      1     70     80      0.2592          0.6804E+06
   5515      1     70     81      0.2632          0.6804E+06
   5516      1     70     82      0.2654          0.6804E+06
   5517      1     70     83      0.2680          0.6804E+06
   5518      1     70     84      0.2721          0.6804E+06
   5519      1     70     85      0.2763          0.6804E+06
   5520      1     70     86      0.2816          0.6804E+06
   5521      1     70     87      0.2863          0.6804E+06
   5522      1     70     88      0.2897          0.6804E+06
   5523      1     70     89      0.2926          0.6804E+06
   5524      1     70     90      0.2956          0.6804E+06
   5525      1     70     91      0.2985          0.6804E+06
   5526      1     70     92      0.3021          0.6804E+06
   5527      1     70     93      0.3053          0.6804E+06
   5528      1     70     94      0.3094          0.6804E+06
   5529      1     70     95      0.3138          0.6804E+06
   5530      1     70     96      0.3177          0.6804E+06
   5531      1     70     97      0.3216          0.6804E+06
   5532      1     70     98      0.3241          0.6804E+06
   5533      1     70     99      0.3260          0.6804E+06
   5534      1     70    100      0.3269          0.6804E+06
   5535      1     71      1       1.044          0.6804E+06
   5536      1     71      2       1.012          0.6804E+06
   5537      1     71      3      0.9810          0.6804E+06
   5538      1     71      4      0.9393          0.6804E+06
   5539      1     71      5      0.8874          0.6804E+06
   5540      1     71      6      0.8357          0.6804E+06
   5541      1     71      7      0.7698          0.6804E+06
   5542      1     71      8      0.6933          0.6804E+06
   5543      1     71      9      0.6115          0.6804E+06
   5544      1     71     10      0.5047          0.6804E+06
   5545      1     71     11      0.4131          0.6804E+06
   5546      1     71     12      0.3265          0.6804E+06
   5547      1     71     13      0.2751          0.6804E+06
   5548      1     71     14      0.2534          0.6804E+06
   5549      1     71     15      0.2384          0.6804E+06
   5550      1     71     16      0.2288          0.6804E+06
   5551      1     71     17      0.2208          0.6804E+06
   5552      1     71     18      0.2147          0.6804E+06
   5553      1     71     19      0.2103          0.6804E+06
   5554      1     71     20      0.2004          0.6804E+06
   5555      1     71     21      0.1819          0.6804E+06
   5556      1     71     22      0.1587          0.6804E+06
   5557      1     71     23      0.1336          0.6804E+06
   5558      1     71     24      0.1141          0.6804E+06
   5559      1     71     25      0.9519E-01      0.6804E+06
   5560      1     71     26      0.8224E-01      0.6804E+06
   5561      1     71     27      0.7984E-01      0.6804E+06
   5562      1     71     28      0.8187E-01      0.6804E+06
   5563      1     71     29      0.8450E-01      0.6804E+06
   5564      1     71     30      0.8545E-01      0.6804E+06
   5565      1     71     74      0.2032          0.6804E+06
   5566      1     71     75      0.2267          0.6804E+06
   5567      1     71     76      0.2487          0.6804E+06
   5568      1     71     77      0.2610          0.6804E+06
   5569      1     71     78      0.2689          0.6804E+06
   5570      1     71     79      0.2737          0.6804E+06
   5571      1     71     80      0.2767          0.6804E+06
   5572      1     71     81      0.2788          0.6804E+06
   5573      1     71     82      0.2788          0.6804E+06
   5574      1     71     83      0.2797          0.6804E+06
   5575      1     71     84      0.2822          0.6804E+06
   5576      1     71     85      0.2846          0.6804E+06
   5577      1     71     86      0.2880          0.6804E+06
   5578      1     71     87      0.2912          0.6804E+06
   5579      1     71     88      0.2935          0.6804E+06
   5580      1     71     89      0.2961          0.6804E+06
   5581      1     71     90      0.2989          0.6804E+06
   5582      1     71     91      0.3017          0.6804E+06
   5583      1     71     92      0.3053          0.6804E+06
   5584      1     71     93      0.3083          0.6804E+06
   5585      1     71     94      0.3120          0.6804E+06
   5586      1     71     95      0.3160          0.6804E+06
   5587      1     71     96      0.3194          0.6804E+06
   5588      1     71     97      0.3226          0.6804E+06
   5589      1     71     98      0.3249          0.6804E+06
   5590      1     71     99      0.3268          0.6804E+06
   5591      1     71    100      0.3278          0.6804E+06
   5592      1     72      1       1.041          0.6804E+06
   5593      1     72      2       1.017          0.6804E+06
   5594      1     72      3      0.9919          0.6804E+06
   5595      1     72      4      0.9595          0.6804E+06
   5596      1     72      5      0.9222          0.6804E+06
   5597      1     72      6      0.8850          0.6804E+06
   5598      1     72      7      0.8329          0.6804E+06
   5599      1     72      8      0.7633          0.6804E+06
   5600      1     72      9      0.6782          0.6804E+06
   5601      1     72     10      0.5649          0.6804E+06
   5602      1     72     11      0.4641          0.6804E+06
   5603      1     72     12      0.3678          0.6804E+06
   5604      1     72     13      0.3126          0.6804E+06
   5605      1     72     14      0.2887          0.6804E+06
   5606      1     72     15      0.2699          0.6804E+06
   5607      1     72     16      0.2557          0.6804E+06
   5608      1     72     17      0.2422          0.6804E+06
   5609      1     72     18      0.2301          0.6804E+06
   5610      1     72     19      0.2203          0.6804E+06
   5611      1     72     20      0.2058          0.6804E+06
   5612      1     72     21      0.1849          0.6804E+06
   5613      1     72     22      0.1623          0.6804E+06
   5614      1     72     23      0.1385          0.6804E+06
   5615      1     72     24      0.1200          0.6804E+06
   5616      1     72     25      0.1024          0.6804E+06
   5617      1     72     26      0.9081E-01      0.6804E+06
   5618      1     72     27      0.8636E-01      0.6804E+06
   5619      1     72     28      0.8408E-01      0.6804E+06
   5620      1     72     29      0.8199E-01      0.6804E+06
   5621      1     72     30      0.7946E-01      0.6804E+06
   5622      1     72     31      0.8053E-01      0.6804E+06
   5623      1     72     76      0.2759          0.6804E+06
   5624      1     72     77      0.2839          0.6804E+06
   5625      1     72     78      0.2884          0.6804E+06
   5626      1     72     79      0.2909          0.6804E+06
   5627      1     72     80      0.2920          0.6804E+06
   5628      1     72     81      0.2922          0.6804E+06
   5629      1     72     82      0.2904          0.6804E+06
   5630      1     72     83      0.2896          0.6804E+06
   5631      1     72     84      0.2901          0.6804E+06
   5632      1     72     85      0.2908          0.6804E+06
   5633      1     72     86      0.2924          0.6804E+06
   5634      1     72     87      0.2942          0.6804E+06
   5635      1     72     88      0.2959          0.6804E+06
   5636      1     72     89      0.2982          0.6804E+06
   5637      1     72     90      0.3009          0.6804E+06
   5638      1     72     91      0.3037          0.6804E+06
   5639      1     72     92      0.3072          0.6804E+06
   5640      1     72     93      0.3101          0.6804E+06
   5641      1     72     94      0.3135          0.6804E+06
   5642      1     72     95      0.3171          0.6804E+06
   5643      1     72     96      0.3201          0.6804E+06
   5644      1     72     97      0.3230          0.6804E+06
   5645      1     72     98      0.3250          0.6804E+06
   5646      1     72     99      0.3267          0.6804E+06
   5647      1     72    100      0.3278          0.6804E+06
   5648      1     73      1       1.035          0.6804E+06
   5649      1     73      2       1.015          0.6804E+06
   5650      1     73      3      0.9945          0.6804E+06
   5651      1     73      4      0.9694          0.6804E+06
   5652      1     73      5      0.9434          0.6804E+06
   5653      1     73      6      0.9195          0.6804E+06
   5654      1     73      7      0.8851          0.6804E+06
   5655      1     73      8      0.8276          0.6804E+06
   5656      1     73      9      0.7387          0.6804E+06
   5657      1     73     10      0.6230          0.6804E+06
   5658      1     73     11      0.5239          0.6804E+06
   5659      1     73     12      0.4279          0.6804E+06
   5660      1     73     13      0.3649          0.6804E+06
   5661      1     73     14      0.3318          0.6804E+06
   5662      1     73     15      0.3039          0.6804E+06
   5663      1     73     16      0.2827          0.6804E+06
   5664      1     73     17      0.2617          0.6804E+06
   5665      1     73     18      0.2429          0.6804E+06
   5666      1     73     19      0.2268          0.6804E+06
   5667      1     73     20      0.2069          0.6804E+06
   5668      1     73     21      0.1843          0.6804E+06
   5669      1     73     22      0.1636          0.6804E+06
   5670      1     73     23      0.1416          0.6804E+06
   5671      1     73     24      0.1243          0.6804E+06
   5672      1     73     25      0.1073          0.6804E+06
   5673      1     73     26      0.9514E-01      0.6804E+06
   5674      1     73     27      0.8796E-01      0.6804E+06
   5675      1     73     28      0.8118E-01      0.6804E+06
   5676      1     73     29      0.7485E-01      0.6804E+06
   5677      1     73     30      0.6983E-01      0.6804E+06
   5678      1     73     31      0.6996E-01      0.6804E+06
   5679      1     73     32      0.7190E-01      0.6804E+06
   5680      1     73     78      0.3037          0.6804E+06
   5681      1     73     79      0.3039          0.6804E+06
   5682      1     73     80      0.3034          0.6804E+06
   5683      1     73     81      0.3019          0.6804E+06
   5684      1     73     82      0.2989          0.6804E+06
   5685      1     73     83      0.2967          0.6804E+06
   5686      1     73     84      0.2956          0.6804E+06
   5687      1     73     85      0.2948          0.6804E+06
   5688      1     73     86      0.2950          0.6804E+06
   5689      1     73     87      0.2958          0.6804E+06
   5690      1     73     88      0.2970          0.6804E+06
   5691      1     73     89      0.2991          0.6804E+06
   5692      1     73     90      0.3017          0.6804E+06
   5693      1     73     91      0.3045          0.6804E+06
   5694      1     73     92      0.3080          0.6804E+06
   5695      1     73     93      0.3108          0.6804E+06
   5696      1     73     94      0.3140          0.6804E+06
   5697      1     73     95      0.3174          0.6804E+06
   5698      1     73     96      0.3201          0.6804E+06
   5699      1     73     97      0.3227          0.6804E+06
   5700      1     73     98      0.3246          0.6804E+06
   5701      1     73     99      0.3262          0.6804E+06
   5702      1     73    100      0.3273          0.6804E+06
   5703      1     74      1       1.026          0.6804E+06
   5704      1     74      2       1.008          0.6804E+06
   5705      1     74      3      0.9908          0.6804E+06
   5706      1     74      4      0.9715          0.6804E+06
   5707      1     74      5      0.9550          0.6804E+06
   5708      1     74      6      0.9410          0.6804E+06
   5709      1     74      7      0.9176          0.6804E+06
   5710      1     74      8      0.8699          0.6804E+06
   5711      1     74      9      0.7894          0.6804E+06
   5712      1     74     10      0.6835          0.6804E+06
   5713      1     74     11      0.5932          0.6804E+06
   5714      1     74     12      0.5029          0.6804E+06
   5715      1     74     13      0.4336          0.6804E+06
   5716      1     74     14      0.3892          0.6804E+06
   5717      1     74     15      0.3487          0.6804E+06
   5718      1     74     16      0.3174          0.6804E+06
   5719      1     74     17      0.2861          0.6804E+06
   5720      1     74     18      0.2591          0.6804E+06
   5721      1     74     19      0.2364          0.6804E+06
   5722      1     74     20      0.2106          0.6804E+06
   5723      1     74     21      0.1852          0.6804E+06
   5724      1     74     22      0.1656          0.6804E+06
   5725      1     74     23      0.1452          0.6804E+06
   5726      1     74     24      0.1289          0.6804E+06
   5727      1     74     25      0.1121          0.6804E+06
   5728      1     74     26      0.9792E-01      0.6804E+06
   5729      1     74     27      0.8700E-01      0.6804E+06
   5730      1     74     28      0.7528E-01      0.6804E+06
   5731      1     74     29      0.6438E-01      0.6804E+06
   5732      1     74     30      0.5653E-01      0.6804E+06
   5733      1     74     31      0.5697E-01      0.6804E+06
   5734      1     74     32      0.6116E-01      0.6804E+06
   5735      1     74     33      0.6568E-01      0.6804E+06
   5736      1     74     80      0.3134          0.6804E+06
   5737      1     74     81      0.3107          0.6804E+06
   5738      1     74     82      0.3066          0.6804E+06
   5739      1     74     83      0.3032          0.6804E+06
   5740      1     74     84      0.3003          0.6804E+06
   5741      1     74     85      0.2981          0.6804E+06
   5742      1     74     86      0.2966          0.6804E+06
   5743      1     74     87      0.2962          0.6804E+06
   5744      1     74     88      0.2971          0.6804E+06
   5745      1     74     89      0.2991          0.6804E+06
   5746      1     74     90      0.3018          0.6804E+06
   5747      1     74     91      0.3047          0.6804E+06
   5748      1     74     92      0.3082          0.6804E+06
   5749      1     74     93      0.3111          0.6804E+06
   5750      1     74     94      0.3142          0.6804E+06
   5751      1     74     95      0.3172          0.6804E+06
   5752      1     74     96      0.3197          0.6804E+06
   5753      1     74     97      0.3220          0.6804E+06
   5754      1     74     98      0.3237          0.6804E+06
   5755      1     74     99      0.3252          0.6804E+06
   5756      1     74    100      0.3263          0.6804E+06
   5757      1     75      1       1.016          0.6804E+06
   5758      1     75      2      0.9983          0.6804E+06
   5759      1     75      3      0.9817          0.6804E+06
   5760      1     75      4      0.9645          0.6804E+06
   5761      1     75      5      0.9552          0.6804E+06
   5762      1     75      6      0.9469          0.6804E+06
   5763      1     75      7      0.9281          0.6804E+06
   5764      1     75      8      0.8868          0.6804E+06
   5765      1     75      9      0.8213          0.6804E+06
   5766      1     75     10      0.7319          0.6804E+06
   5767      1     75     11      0.6532          0.6804E+06
   5768      1     75     12      0.5702          0.6804E+06
   5769      1     75     13      0.4986          0.6804E+06
   5770      1     75     14      0.4465          0.6804E+06
   5771      1     75     15      0.3956          0.6804E+06
   5772      1     75     16      0.3550          0.6804E+06
   5773      1     75     17      0.3131          0.6804E+06
   5774      1     75     18      0.2790          0.6804E+06
   5775      1     75     19      0.2512          0.6804E+06
   5776      1     75     20      0.2205          0.6804E+06
   5777      1     75     21      0.1922          0.6804E+06
   5778      1     75     22      0.1718          0.6804E+06
   5779      1     75     23      0.1510          0.6804E+06
   5780      1     75     24      0.1344          0.6804E+06
   5781      1     75     25      0.1171          0.6804E+06
   5782      1     75     26      0.1013          0.6804E+06
   5783      1     75     27      0.8772E-01      0.6804E+06
   5784      1     75     28      0.7226E-01      0.6804E+06
   5785      1     75     29      0.5739E-01      0.6804E+06
   5786      1     75     30      0.4658E-01      0.6804E+06
   5787      1     75     31      0.4732E-01      0.6804E+06
   5788      1     75     32      0.5269E-01      0.6804E+06
   5789      1     75     33      0.5864E-01      0.6804E+06
   5790      1     75     34      0.6090E-01      0.6804E+06
   5791      1     75     35      0.5981E-01      0.6804E+06
   5792      1     75     36      0.5356E-01      0.6804E+06
   5793      1     75     37      0.4033E-01      0.6804E+06
   5794      1     75     38      0.2141E-01      0.6804E+06
   5795      1     75     39     -0.4928E-02      0.6804E+06
   5796      1     75     40     -0.4860E-01      0.6804E+06
   5797      1     75     82      0.3118          0.6804E+06
   5798      1     75     83      0.3075          0.6804E+06
   5799      1     75     84      0.3034          0.6804E+06
   5800      1     75     85      0.3000          0.6804E+06
   5801      1     75     86      0.2970          0.6804E+06
   5802      1     75     87      0.2954          0.6804E+06
   5803      1     75     88      0.2959          0.6804E+06
   5804      1     75     89      0.2979          0.6804E+06
   5805      1     75     90      0.3010          0.6804E+06
   5806      1     75     91      0.3042          0.6804E+06
   5807      1     75     92      0.3080          0.6804E+06
   5808      1     75     93      0.3110          0.6804E+06
   5809      1     75     94      0.3141          0.6804E+06
   5810      1     75     95      0.3169          0.6804E+06
   5811      1     75     96      0.3190          0.6804E+06
   5812      1     75     97      0.3210          0.6804E+06
   5813      1     75     98      0.3225          0.6804E+06
   5814      1     75     99      0.3240          0.6804E+06
   5815      1     75    100      0.3251          0.6804E+06
   5816      1     76      1       1.008          0.6804E+06
   5817      1     76      2      0.9897          0.6804E+06
   5818      1     76      3      0.9721          0.6804E+06
   5819      1     76      4      0.9540          0.6804E+06
   5820      1     76      5      0.9498          0.6804E+06
   5821      1     76      6      0.9446          0.6804E+06
   5822      1     76      7      0.9283          0.6804E+06
   5823      1     76      8      0.8926          0.6804E+06
   5824      1     76      9      0.8398          0.6804E+06
   5825      1     76     10      0.7654          0.6804E+06
   5826      1     76     11      0.6969          0.6804E+06
   5827      1     76     12      0.6210          0.6804E+06
   5828      1     76     13      0.5498          0.6804E+06
   5829      1     76     14      0.4940          0.6804E+06
   5830      1     76     15      0.4369          0.6804E+06
   5831      1     76     16      0.3905          0.6804E+06
   5832      1     76     17      0.3418          0.6804E+06
   5833      1     76     18      0.3015          0.6804E+06
   5834      1     76     19      0.2689          0.6804E+06
   5835      1     76     20      0.2341          0.6804E+06
   5836      1     76     21      0.2034          0.6804E+06
   5837      1     76     22      0.1810          0.6804E+06
   5838      1     76     23      0.1586          0.6804E+06
   5839      1     76     24      0.1410          0.6804E+06
   5840      1     76     25      0.1227          0.6804E+06
   5841      1     76     26      0.1048          0.6804E+06
   5842      1     76     27      0.9022E-01      0.6804E+06
   5843      1     76     28      0.7400E-01      0.6804E+06
   5844      1     76     29      0.5855E-01      0.6804E+06
   5845      1     76     30      0.4888E-01      0.6804E+06
   5846      1     76     31      0.4634E-01      0.6804E+06
   5847      1     76     32      0.4826E-01      0.6804E+06
   5848      1     76     33      0.5256E-01      0.6804E+06
   5849      1     76     34      0.5650E-01      0.6804E+06
   5850      1     76     35      0.5869E-01      0.6804E+06
   5851      1     76     36      0.5778E-01      0.6804E+06
   5852      1     76     37      0.5154E-01      0.6804E+06
   5853      1     76     38      0.4008E-01      0.6804E+06
   5854      1     76     39      0.1864E-01      0.6804E+06
   5855      1     76     40     -0.8048E-02      0.6804E+06
   5856      1     76     41     -0.6197E-01      0.6804E+06
   5857      1     76     42     -0.1574          0.6804E+06
   5858      1     76     43     -0.2362          0.6804E+06
   5859      1     76     44     -0.2399          0.6804E+06
   5860      1     76     45     -0.2224          0.6804E+06
   5861      1     76     46     -0.1938          0.6804E+06
   5862      1     76     47     -0.1576          0.6804E+06
   5863      1     76     48     -0.1292          0.6804E+06
   5864      1     76     49     -0.9142E-01      0.6804E+06
   5865      1     76     50     -0.8323E-01      0.6804E+06
   5866      1     76     51     -0.7015E-01      0.6804E+06
   5867      1     76     52     -0.8705E-01      0.6804E+06
   5868      1     76     53     -0.9422E-01      0.6804E+06
   5869      1     76     54     -0.6810E-01      0.6804E+06
   5870      1     76     55     -0.5578E-01      0.6804E+06
   5871      1     76     83      0.3105          0.6804E+06
   5872      1     76     84      0.3053          0.6804E+06
   5873      1     76     85      0.3009          0.6804E+06
   5874      1     76     86      0.2964          0.6804E+06
   5875      1     76     87      0.2937          0.6804E+06
   5876      1     76     88      0.2939          0.6804E+06
   5877      1     76     89      0.2966          0.6804E+06
   5878      1     76     90      0.3003          0.6804E+06
   5879      1     76     91      0.3038          0.6804E+06
   5880      1     76     92      0.3079          0.6804E+06
   5881      1     76     93      0.3109          0.6804E+06
   5882      1     76     94      0.3140          0.6804E+06
   5883      1     76     95      0.3165          0.6804E+06
   5884      1     76     96      0.3184          0.6804E+06
   5885      1     76     97      0.3200          0.6804E+06
   5886      1     76     98      0.3214          0.6804E+06
   5887      1     76     99      0.3228          0.6804E+06
   5888      1     76    100      0.3241          0.6804E+06
   5889      1     77      1       1.001          0.6804E+06
   5890      1     77      2      0.9839          0.6804E+06
   5891      1     77      3      0.9683          0.6804E+06
   5892      1     77      4      0.9532          0.6804E+06
   5893      1     77      5      0.9484          0.6804E+06
   5894      1     77      6      0.9436          0.6804E+06
   5895      1     77      7      0.9310          0.6804E+06
   5896      1     77      8      0.9031          0.6804E+06
   5897      1     77      9      0.8591          0.6804E+06
   5898      1     77     10      0.7963          0.6804E+06
   5899      1     77     11      0.7374          0.6804E+06
   5900      1     77     12      0.6697          0.6804E+06
   5901      1     77     13      0.6008          0.6804E+06
   5902      1     77     14      0.5437          0.6804E+06
   5903      1     77     15      0.4831          0.6804E+06
   5904      1     77     16      0.4330          0.6804E+06
   5905      1     77     17      0.3796          0.6804E+06
   5906      1     77     18      0.3320          0.6804E+06
   5907      1     77     19      0.2933          0.6804E+06
   5908      1     77     20      0.2531          0.6804E+06
   5909      1     77     21      0.2191          0.6804E+06
   5910      1     77     22      0.1943          0.6804E+06
   5911      1     77     23      0.1700          0.6804E+06
   5912      1     77     24      0.1513          0.6804E+06
   5913      1     77     25      0.1318          0.6804E+06
   5914      1     77     26      0.1117          0.6804E+06
   5915      1     77     27      0.9592E-01      0.6804E+06
   5916      1     77     28      0.7905E-01      0.6804E+06
   5917      1     77     29      0.6318E-01      0.6804E+06
   5918      1     77     30      0.5343E-01      0.6804E+06
   5919      1     77     31      0.4698E-01      0.6804E+06
   5920      1     77     32      0.4501E-01      0.6804E+06
   5921      1     77     33      0.4714E-01      0.6804E+06
   5922      1     77     34      0.5264E-01      0.6804E+06
   5923      1     77     35      0.5666E-01      0.6804E+06
   5924      1     77     36      0.5944E-01      0.6804E+06
   5925      1     77     37      0.5884E-01      0.6804E+06
   5926      1     77     38      0.5307E-01      0.6804E+06
   5927      1     77     39      0.3792E-01      0.6804E+06
   5928      1     77     40      0.1553E-01      0.6804E+06
   5929      1     77     41     -0.1409E-01      0.6804E+06
   5930      1     77     42     -0.6773E-01      0.6804E+06
   5931      1     77     43     -0.1318          0.6804E+06
   5932      1     77     44     -0.2024          0.6804E+06
   5933      1     77     45     -0.2205          0.6804E+06
   5934      1     77     46     -0.1914          0.6804E+06
   5935      1     77     47     -0.1720          0.6804E+06
   5936      1     77     48     -0.1567          0.6804E+06
   5937      1     77     49     -0.1345          0.6804E+06
   5938      1     77     50     -0.1181          0.6804E+06
   5939      1     77     51     -0.1069          0.6804E+06
   5940      1     77     52     -0.1091          0.6804E+06
   5941      1     77     53     -0.1079          0.6804E+06
   5942      1     77     54     -0.9501E-01      0.6804E+06
   5943      1     77     55     -0.1144          0.6804E+06
   5944      1     77     56     -0.9585E-01      0.6804E+06
   5945      1     77     57     -0.3554E-01      0.6804E+06
   5946      1     77     58      0.9135E-02      0.6804E+06
   5947      1     77     59      0.2871E-01      0.6804E+06
   5948      1     77     60      0.4551E-01      0.6804E+06
   5949      1     77     61      0.5443E-01      0.6804E+06
   5950      1     77     62      0.6121E-01      0.6804E+06
   5951      1     77     63      0.6980E-01      0.6804E+06
   5952      1     77     84      0.3073          0.6804E+06
   5953      1     77     85      0.3018          0.6804E+06
   5954      1     77     86      0.2957          0.6804E+06
   5955      1     77     87      0.2917          0.6804E+06
   5956      1     77     88      0.2919          0.6804E+06
   5957      1     77     89      0.2956          0.6804E+06
   5958      1     77     90      0.3000          0.6804E+06
   5959      1     77     91      0.3039          0.6804E+06
   5960      1     77     92      0.3081          0.6804E+06
   5961      1     77     93      0.3112          0.6804E+06
   5962      1     77     94      0.3141          0.6804E+06
   5963      1     77     95      0.3165          0.6804E+06
   5964      1     77     96      0.3179          0.6804E+06
   5965      1     77     97      0.3191          0.6804E+06
   5966      1     77     98      0.3202          0.6804E+06
   5967      1     77     99      0.3217          0.6804E+06
   5968      1     77    100      0.3232          0.6804E+06
   5969      1     78      1      0.9966          0.6804E+06
   5970      1     78      2      0.9815          0.6804E+06
   5971      1     78      3      0.9683          0.6804E+06
   5972      1     78      4      0.9558          0.6804E+06
   5973      1     78      5      0.9494          0.6804E+06
   5974      1     78      6      0.9436          0.6804E+06
   5975      1     78      7      0.9321          0.6804E+06
   5976      1     78      8      0.9085          0.6804E+06
   5977      1     78      9      0.8707          0.6804E+06
   5978      1     78     10      0.8162          0.6804E+06
   5979      1     78     11      0.7641          0.6804E+06
   5980      1     78     12      0.7026          0.6804E+06
   5981      1     78     13      0.6378          0.6804E+06
   5982      1     78     14      0.5822          0.6804E+06
   5983      1     78     15      0.5215          0.6804E+06
   5984      1     78     16      0.4701          0.6804E+06
   5985      1     78     17      0.4138          0.6804E+06
   5986      1     78     18      0.3609          0.6804E+06
   5987      1     78     19      0.3169          0.6804E+06
   5988      1     78     20      0.2711          0.6804E+06
   5989      1     78     21      0.2337          0.6804E+06
   5990      1     78     22      0.2077          0.6804E+06
   5991      1     78     23      0.1826          0.6804E+06
   5992      1     78     24      0.1633          0.6804E+06
   5993      1     78     25      0.1426          0.6804E+06
   5994      1     78     26      0.1209          0.6804E+06
   5995      1     78     27      0.1036          0.6804E+06
   5996      1     78     28      0.8531E-01      0.6804E+06
   5997      1     78     29      0.6839E-01      0.6804E+06
   5998      1     78     30      0.5733E-01      0.6804E+06
   5999      1     78     31      0.4869E-01      0.6804E+06
   6000      1     78     32      0.4477E-01      0.6804E+06
   6001      1     78     33      0.4533E-01      0.6804E+06
   6002      1     78     34      0.5114E-01      0.6804E+06
   6003      1     78     35      0.5588E-01      0.6804E+06
   6004      1     78     36      0.5993E-01      0.6804E+06
   6005      1     78     37      0.6158E-01      0.6804E+06
   6006      1     78     38      0.5956E-01      0.6804E+06
   6007      1     78     39      0.4993E-01      0.6804E+06
   6008      1     78     40      0.3469E-01      0.6804E+06
   6009      1     78     41      0.1050E-01      0.6804E+06
   6010      1     78     42     -0.1511E-01      0.6804E+06
   6011      1     78     43     -0.4454E-01      0.6804E+06
   6012      1     78     44     -0.1072          0.6804E+06
   6013      1     78     45     -0.1426          0.6804E+06
   6014      1     78     46     -0.1364          0.6804E+06
   6015      1     78     47     -0.1325          0.6804E+06
   6016      1     78     48     -0.1254          0.6804E+06
   6017      1     78     49     -0.1234          0.6804E+06
   6018      1     78     50     -0.1231          0.6804E+06
   6019      1     78     51     -0.1226          0.6804E+06
   6020      1     78     52     -0.1204          0.6804E+06
   6021      1     78     53     -0.1176          0.6804E+06
   6022      1     78     54     -0.1074          0.6804E+06
   6023      1     78     55     -0.7695E-01      0.6804E+06
   6024      1     78     56     -0.3721E-01      0.6804E+06
   6025      1     78     57      0.4687E-03      0.6804E+06
   6026      1     78     58      0.2799E-01      0.6804E+06
   6027      1     78     59      0.4653E-01      0.6804E+06
   6028      1     78     60      0.6140E-01      0.6804E+06
   6029      1     78     61      0.6920E-01      0.6804E+06
   6030      1     78     62      0.7526E-01      0.6804E+06
   6031      1     78     63      0.8481E-01      0.6804E+06
   6032      1     78     64      0.9788E-01      0.6804E+06
   6033      1     78     65      0.1202          0.6804E+06
   6034      1     78     66      0.1457          0.6804E+06
   6035      1     78     85      0.3031          0.6804E+06
   6036      1     78     86      0.2962          0.6804E+06
   6037      1     78     87      0.2915          0.6804E+06
   6038      1     78     88      0.2918          0.6804E+06
   6039      1     78     89      0.2960          0.6804E+06
   6040      1     78     90      0.3008          0.6804E+06
   6041      1     78     91      0.3047          0.6804E+06
   6042      1     78     92      0.3089          0.6804E+06
   6043      1     78     93      0.3119          0.6804E+06
   6044      1     78     94      0.3148          0.6804E+06
   6045      1     78     95      0.3169          0.6804E+06
   6046      1     78     96      0.3182          0.6804E+06
   6047      1     78     97      0.3189          0.6804E+06
   6048      1     78     98      0.3198          0.6804E+06
   6049      1     78     99      0.3214          0.6804E+06
   6050      1     78    100      0.3231          0.6804E+06
   6051      1     79      1      0.9930          0.6804E+06
   6052      1     79      2      0.9799          0.6804E+06
   6053      1     79      3      0.9688          0.6804E+06
   6054      1     79      4      0.9581          0.6804E+06
   6055      1     79      5      0.9501          0.6804E+06
   6056      1     79      6      0.9428          0.6804E+06
   6057      1     79      7      0.9308          0.6804E+06
   6058      1     79      8      0.9096          0.6804E+06
   6059      1     79      9      0.8781          0.6804E+06
   6060      1     79     10      0.8324          0.6804E+06
   6061      1     79     11      0.7875          0.6804E+06
   6062      1     79     12      0.7324          0.6804E+06
   6063      1     79     13      0.6734          0.6804E+06
   6064      1     79     14      0.6212          0.6804E+06
   6065      1     79     15      0.5627          0.6804E+06
   6066      1     79     16      0.5119          0.6804E+06
   6067      1     79     17      0.4540          0.6804E+06
   6068      1     79     18      0.3961          0.6804E+06
   6069      1     79     19      0.3456          0.6804E+06
   6070      1     79     20      0.2921          0.6804E+06
   6071      1     79     21      0.2510          0.6804E+06
   6072      1     79     22      0.2254          0.6804E+06
   6073      1     79     23      0.2012          0.6804E+06
   6074      1     79     24      0.1819          0.6804E+06
   6075      1     79     25      0.1598          0.6804E+06
   6076      1     79     26      0.1358          0.6804E+06
   6077      1     79     27      0.1158          0.6804E+06
   6078      1     79     28      0.9451E-01      0.6804E+06
   6079      1     79     29      0.7495E-01      0.6804E+06
   6080      1     79     30      0.6192E-01      0.6804E+06
   6081      1     79     31      0.5244E-01      0.6804E+06
   6082      1     79     32      0.4801E-01      0.6804E+06
   6083      1     79     33      0.4721E-01      0.6804E+06
   6084      1     79     34      0.5186E-01      0.6804E+06
   6085      1     79     35      0.5652E-01      0.6804E+06
   6086      1     79     36      0.6092E-01      0.6804E+06
   6087      1     79     37      0.6354E-01      0.6804E+06
   6088      1     79     38      0.6399E-01      0.6804E+06
   6089      1     79     39      0.5964E-01      0.6804E+06
   6090      1     79     40      0.5134E-01      0.6804E+06
   6091      1     79     41      0.3708E-01      0.6804E+06
   6092      1     79     42      0.1872E-01      0.6804E+06
   6093      1     79     43      0.2921E-02      0.6804E+06
   6094      1     79     44     -0.2848E-01      0.6804E+06
   6095      1     79     45     -0.4160E-01      0.6804E+06
   6096      1     79     46     -0.2580E-01      0.6804E+06
   6097      1     79     47     -0.2476E-01      0.6804E+06
   6098      1     79     48     -0.2898E-01      0.6804E+06
   6099      1     79     49     -0.3123E-01      0.6804E+06
   6100      1     79     50     -0.2816E-01      0.6804E+06
   6101      1     79     51     -0.2968E-01      0.6804E+06
   6102      1     79     52     -0.2876E-01      0.6804E+06
   6103      1     79     53     -0.2502E-01      0.6804E+06
   6104      1     79     54     -0.1882E-01      0.6804E+06
   6105      1     79     55     -0.8717E-02      0.6804E+06
   6106      1     79     56      0.8236E-02      0.6804E+06
   6107      1     79     57      0.3112E-01      0.6804E+06
   6108      1     79     58      0.5396E-01      0.6804E+06
   6109      1     79     59      0.6928E-01      0.6804E+06
   6110      1     79     60      0.8204E-01      0.6804E+06
   6111      1     79     61      0.8909E-01      0.6804E+06
   6112      1     79     62      0.9480E-01      0.6804E+06
   6113      1     79     63      0.1052          0.6804E+06
   6114      1     79     64      0.1229          0.6804E+06
   6115      1     79     65      0.1452          0.6804E+06
   6116      1     79     66      0.1663          0.6804E+06
   6117      1     79     67      0.1837          0.6804E+06
   6118      1     79     68      0.2034          0.6804E+06
   6119      1     79     86      0.3006          0.6804E+06
   6120      1     79     87      0.2967          0.6804E+06
   6121      1     79     88      0.2965          0.6804E+06
   6122      1     79     89      0.2994          0.6804E+06
   6123      1     79     90      0.3033          0.6804E+06
   6124      1     79     91      0.3068          0.6804E+06
   6125      1     79     92      0.3107          0.6804E+06
   6126      1     79     93      0.3136          0.6804E+06
   6127      1     79     94      0.3163          0.6804E+06
   6128      1     79     95      0.3184          0.6804E+06
   6129      1     79     96      0.3195          0.6804E+06
   6130      1     79     97      0.3201          0.6804E+06
   6131      1     79     98      0.3208          0.6804E+06
   6132      1     79     99      0.3223          0.6804E+06
   6133      1     79    100      0.3238          0.6804E+06
   6134      1     80      1      0.9899          0.6804E+06
   6135      1     80      2      0.9776          0.6804E+06
   6136      1     80      3      0.9673          0.6804E+06
   6137      1     80      4      0.9571          0.6804E+06
   6138      1     80      5      0.9485          0.6804E+06
   6139      1     80      6      0.9403          0.6804E+06
   6140      1     80      7      0.9277          0.6804E+06
   6141      1     80      8      0.9079          0.6804E+06
   6142      1     80      9      0.8820          0.6804E+06
   6143      1     80     10      0.8444          0.6804E+06
   6144      1     80     11      0.8063          0.6804E+06
   6145      1     80     12      0.7577          0.6804E+06
   6146      1     80     13      0.7044          0.6804E+06
   6147      1     80     14      0.6562          0.6804E+06
   6148      1     80     15      0.6013          0.6804E+06
   6149      1     80     16      0.5529          0.6804E+06
   6150      1     80     17      0.4964          0.6804E+06
   6151      1     80     18      0.4353          0.6804E+06
   6152      1     80     19      0.3786          0.6804E+06
   6153      1     80     20      0.3165          0.6804E+06
   6154      1     80     21      0.2724          0.6804E+06
   6155      1     80     22      0.2494          0.6804E+06
   6156      1     80     23      0.2278          0.6804E+06
   6157      1     80     24      0.2080          0.6804E+06
   6158      1     80     25      0.1835          0.6804E+06
   6159      1     80     26      0.1560          0.6804E+06
   6160      1     80     27      0.1323          0.6804E+06
   6161      1     80     28      0.1066          0.6804E+06
   6162      1     80     29      0.8268E-01      0.6804E+06
   6163      1     80     30      0.6861E-01      0.6804E+06
   6164      1     80     31      0.5917E-01      0.6804E+06
   6165      1     80     32      0.5480E-01      0.6804E+06
   6166      1     80     33      0.5309E-01      0.6804E+06
   6167      1     80     34      0.5534E-01      0.6804E+06
   6168      1     80     35      0.5882E-01      0.6804E+06
   6169      1     80     36      0.6308E-01      0.6804E+06
   6170      1     80     37      0.6638E-01      0.6804E+06
   6171      1     80     38      0.6723E-01      0.6804E+06
   6172      1     80     39      0.6600E-01      0.6804E+06
   6173      1     80     40      0.6264E-01      0.6804E+06
   6174      1     80     41      0.5548E-01      0.6804E+06
   6175      1     80     42      0.4323E-01      0.6804E+06
   6176      1     80     43      0.2925E-01      0.6804E+06
   6177      1     80     44      0.1918E-01      0.6804E+06
   6178      1     80     45      0.1882E-01      0.6804E+06
   6179      1     80     46      0.2445E-01      0.6804E+06
   6180      1     80     47      0.2457E-01      0.6804E+06
   6181      1     80     48      0.1905E-01      0.6804E+06
   6182      1     80     49      0.1358E-01      0.6804E+06
   6183      1     80     50      0.1938E-01      0.6804E+06
   6184      1     80     51      0.2135E-01      0.6804E+06
   6185      1     80     52      0.2242E-01      0.6804E+06
   6186      1     80     53      0.2361E-01      0.6804E+06
   6187      1     80     54      0.2176E-01      0.6804E+06
   6188      1     80     55      0.3291E-01      0.6804E+06
   6189      1     80     56      0.4648E-01      0.6804E+06
   6190      1     80     57      0.6447E-01      0.6804E+06
   6191      1     80     58      0.8213E-01      0.6804E+06
   6192      1     80     59      0.9504E-01      0.6804E+06
   6193      1     80     60      0.1072          0.6804E+06
   6194      1     80     61      0.1153          0.6804E+06
   6195      1     80     62      0.1229          0.6804E+06
   6196      1     80     63      0.1327          0.6804E+06
   6197      1     80     64      0.1487          0.6804E+06
   6198      1     80     65      0.1686          0.6804E+06
   6199      1     80     66      0.1877          0.6804E+06
   6200      1     80     67      0.2039          0.6804E+06
   6201      1     80     68      0.2225          0.6804E+06
   6202      1     80     69      0.2374          0.6804E+06
   6203      1     80     70      0.2532          0.6804E+06
   6204      1     80     71      0.2698          0.6804E+06
   6205      1     80     88      0.3024          0.6804E+06
   6206      1     80     89      0.3041          0.6804E+06
   6207      1     80     90      0.3070          0.6804E+06
   6208      1     80     91      0.3099          0.6804E+06
   6209      1     80     92      0.3132          0.6804E+06
   6210      1     80     93      0.3160          0.6804E+06
   6211      1     80     94      0.3187          0.6804E+06
   6212      1     80     95      0.3209          0.6804E+06
   6213      1     80     96      0.3222          0.6804E+06
   6214      1     80     97      0.3232          0.6804E+06
   6215      1     80     98      0.3240          0.6804E+06
   6216      1     80     99      0.3250          0.6804E+06
   6217      1     80    100      0.3257          0.6804E+06
   6218      1     81      1      0.9873          0.6804E+06
   6219      1     81      2      0.9748          0.6804E+06
   6220      1     81      3      0.9642          0.6804E+06
   6221      1     81      4      0.9540          0.6804E+06
   6222      1     81      5      0.9456          0.6804E+06
   6223      1     81      6      0.9378          0.6804E+06
   6224      1     81      7      0.9260          0.6804E+06
   6225      1     81      8      0.9082          0.6804E+06
   6226      1     81      9      0.8861          0.6804E+06
   6227      1     81     10      0.8542          0.6804E+06
   6228      1     81     11      0.8212          0.6804E+06
   6229      1     81     12      0.7781          0.6804E+06
   6230      1     81     13      0.7292          0.6804E+06
   6231      1     81     14      0.6841          0.6804E+06
   6232      1     81     15      0.6324          0.6804E+06
   6233      1     81     16      0.5867          0.6804E+06
   6234      1     81     17      0.5332          0.6804E+06
   6235      1     81     18      0.4722          0.6804E+06
   6236      1     81     19      0.4140          0.6804E+06
   6237      1     81     20      0.3499          0.6804E+06
   6238      1     81     21      0.3059          0.6804E+06
   6239      1     81     22      0.2829          0.6804E+06
   6240      1     81     23      0.2601          0.6804E+06
   6241      1     81     24      0.2379          0.6804E+06
   6242      1     81     25      0.2098          0.6804E+06
   6243      1     81     26      0.1785          0.6804E+06
   6244      1     81     27      0.1509          0.6804E+06
   6245      1     81     28      0.1198          0.6804E+06
   6246      1     81     29      0.9064E-01      0.6804E+06
   6247      1     81     30      0.7631E-01      0.6804E+06
   6248      1     81     31      0.6747E-01      0.6804E+06
   6249      1     81     32      0.6310E-01      0.6804E+06
   6250      1     81     33      0.6036E-01      0.6804E+06
   6251      1     81     34      0.6055E-01      0.6804E+06
   6252      1     81     35      0.6221E-01      0.6804E+06
   6253      1     81     36      0.6534E-01      0.6804E+06
   6254      1     81     37      0.6907E-01      0.6804E+06
   6255      1     81     38      0.7030E-01      0.6804E+06
   6256      1     81     39      0.6990E-01      0.6804E+06
   6257      1     81     40      0.6899E-01      0.6804E+06
   6258      1     81     41      0.6721E-01      0.6804E+06
   6259      1     81     42      0.6061E-01      0.6804E+06
   6260      1     81     43      0.5408E-01      0.6804E+06
   6261      1     81     44      0.5025E-01      0.6804E+06
   6262      1     81     45      0.5074E-01      0.6804E+06
   6263      1     81     46      0.5356E-01      0.6804E+06
   6264      1     81     47      0.5413E-01      0.6804E+06
   6265      1     81     48      0.5197E-01      0.6804E+06
   6266      1     81     49      0.4898E-01      0.6804E+06
   6267      1     81     50      0.5022E-01      0.6804E+06
   6268      1     81     51      0.5167E-01      0.6804E+06
   6269      1     81     52      0.5304E-01      0.6804E+06
   6270      1     81     53      0.5547E-01      0.6804E+06
   6271      1     81     54      0.6126E-01      0.6804E+06
   6272      1     81     55      0.6774E-01      0.6804E+06
   6273      1     81     56      0.7753E-01      0.6804E+06
   6274      1     81     57      0.9229E-01      0.6804E+06
   6275      1     81     58      0.1069          0.6804E+06
   6276      1     81     59      0.1191          0.6804E+06
   6277      1     81     60      0.1316          0.6804E+06
   6278      1     81     61      0.1408          0.6804E+06
   6279      1     81     62      0.1502          0.6804E+06
   6280      1     81     63      0.1612          0.6804E+06
   6281      1     81     64      0.1742          0.6804E+06
   6282      1     81     65      0.1903          0.6804E+06
   6283      1     81     66      0.2068          0.6804E+06
   6284      1     81     67      0.2209          0.6804E+06
   6285      1     81     68      0.2372          0.6804E+06
   6286      1     81     69      0.2505          0.6804E+06
   6287      1     81     70      0.2648          0.6804E+06
   6288      1     81     71      0.2791          0.6804E+06
   6289      1     81     72      0.2915          0.6804E+06
   6290      1     81     73      0.3039          0.6804E+06
   6291      1     81     89      0.3084          0.6804E+06
   6292      1     81     90      0.3106          0.6804E+06
   6293      1     81     91      0.3130          0.6804E+06
   6294      1     81     92      0.3159          0.6804E+06
   6295      1     81     93      0.3186          0.6804E+06
   6296      1     81     94      0.3213          0.6804E+06
   6297      1     81     95      0.3236          0.6804E+06
   6298      1     81     96      0.3252          0.6804E+06
   6299      1     81     97      0.3265          0.6804E+06
   6300      1     81     98      0.3273          0.6804E+06
   6301      1     81     99      0.3279          0.6804E+06
   6302      1     81    100      0.3280          0.6804E+06
   6303      1     82      1      0.9850          0.6804E+06
   6304      1     82      2      0.9718          0.6804E+06
   6305      1     82      3      0.9600          0.6804E+06
   6306      1     82      4      0.9491          0.6804E+06
   6307      1     82      5      0.9421          0.6804E+06
   6308      1     82      6      0.9359          0.6804E+06
   6309      1     82      7      0.9258          0.6804E+06
   6310      1     82      8      0.9106          0.6804E+06
   6311      1     82      9      0.8921          0.6804E+06
   6312      1     82     10      0.8655          0.6804E+06
   6313      1     82     11      0.8377          0.6804E+06
   6314      1     82     12      0.8005          0.6804E+06
   6315      1     82     13      0.7551          0.6804E+06
   6316      1     82     14      0.7127          0.6804E+06
   6317      1     82     15      0.6637          0.6804E+06
   6318      1     82     16      0.6205          0.6804E+06
   6319      1     82     17      0.5704          0.6804E+06
   6320      1     82     18      0.5144          0.6804E+06
   6321      1     82     19      0.4626          0.6804E+06
   6322      1     82     20      0.4066          0.6804E+06
   6323      1     82     21      0.3648          0.6804E+06
   6324      1     82     22      0.3372          0.6804E+06
   6325      1     82     23      0.3074          0.6804E+06
   6326      1     82     24      0.2799          0.6804E+06
   6327      1     82     25      0.2462          0.6804E+06
   6328      1     82     26      0.2099          0.6804E+06
   6329      1     82     27      0.1777          0.6804E+06
   6330      1     82     28      0.1418          0.6804E+06
   6331      1     82     29      0.1090          0.6804E+06
   6332      1     82     30      0.9295E-01      0.6804E+06
   6333      1     82     31      0.8270E-01      0.6804E+06
   6334      1     82     32      0.7687E-01      0.6804E+06
   6335      1     82     33      0.7207E-01      0.6804E+06
   6336      1     82     34      0.6935E-01      0.6804E+06
   6337      1     82     35      0.6826E-01      0.6804E+06
   6338      1     82     36      0.6823E-01      0.6804E+06
   6339      1     82     37      0.6906E-01      0.6804E+06
   6340      1     82     38      0.6936E-01      0.6804E+06
   6341      1     82     39      0.7038E-01      0.6804E+06
   6342      1     82     40      0.7195E-01      0.6804E+06
   6343      1     82     41      0.7384E-01      0.6804E+06
   6344      1     82     42      0.7322E-01      0.6804E+06
   6345      1     82     43      0.7371E-01      0.6804E+06
   6346      1     82     44      0.7529E-01      0.6804E+06
   6347      1     82     45      0.7636E-01      0.6804E+06
   6348      1     82     46      0.7753E-01      0.6804E+06
   6349      1     82     47      0.7820E-01      0.6804E+06
   6350      1     82     48      0.7750E-01      0.6804E+06
   6351      1     82     49      0.7578E-01      0.6804E+06
   6352      1     82     50      0.7534E-01      0.6804E+06
   6353      1     82     51      0.7593E-01      0.6804E+06
   6354      1     82     52      0.7831E-01      0.6804E+06
   6355      1     82     53      0.8291E-01      0.6804E+06
   6356      1     82     54      0.9131E-01      0.6804E+06
   6357      1     82     55      0.9968E-01      0.6804E+06
   6358      1     82     56      0.1089          0.6804E+06
   6359      1     82     57      0.1216          0.6804E+06
   6360      1     82     58      0.1348          0.6804E+06
   6361      1     82     59      0.1470          0.6804E+06
   6362      1     82     60      0.1603          0.6804E+06
   6363      1     82     61      0.1704          0.6804E+06
   6364      1     82     62      0.1810          0.6804E+06
   6365      1     82     63      0.1926          0.6804E+06
   6366      1     82     64      0.2028          0.6804E+06
   6367      1     82     65      0.2148          0.6804E+06
   6368      1     82     66      0.2283          0.6804E+06
   6369      1     82     67      0.2402          0.6804E+06
   6370      1     82     68      0.2534          0.6804E+06
   6371      1     82     69      0.2645          0.6804E+06
   6372      1     82     70      0.2771          0.6804E+06
   6373      1     82     71      0.2900          0.6804E+06
   6374      1     82     72      0.3005          0.6804E+06
   6375      1     82     73      0.3111          0.6804E+06
   6376      1     82     74      0.3200          0.6804E+06
   6377      1     82     75      0.3267          0.6804E+06
   6378      1     82     91      0.3166          0.6804E+06
   6379      1     82     92      0.3193          0.6804E+06
   6380      1     82     93      0.3217          0.6804E+06
   6381      1     82     94      0.3244          0.6804E+06
   6382      1     82     95      0.3270          0.6804E+06
   6383      1     82     96      0.3290          0.6804E+06
   6384      1     82     97      0.3307          0.6804E+06
   6385      1     82     98      0.3315          0.6804E+06
   6386      1     82     99      0.3317          0.6804E+06
   6387      1     82    100      0.3309          0.6804E+06
   6388      1     83      1      0.9840          0.6804E+06
   6389      1     83      2      0.9704          0.6804E+06
   6390      1     83      3      0.9581          0.6804E+06
   6391      1     83      4      0.9471          0.6804E+06
   6392      1     83      5      0.9411          0.6804E+06
   6393      1     83      6      0.9360          0.6804E+06
   6394      1     83      7      0.9273          0.6804E+06
   6395      1     83      8      0.9141          0.6804E+06
   6396      1     83      9      0.8983          0.6804E+06
   6397      1     83     10      0.8753          0.6804E+06
   6398      1     83     11      0.8507          0.6804E+06
   6399      1     83     12      0.8168          0.6804E+06
   6400      1     83     13      0.7746          0.6804E+06
   6401      1     83     14      0.7343          0.6804E+06
   6402      1     83     15      0.6870          0.6804E+06
   6403      1     83     16      0.6451          0.6804E+06
   6404      1     83     17      0.5973          0.6804E+06
   6405      1     83     18      0.5485          0.6804E+06
   6406      1     83     19      0.5057          0.6804E+06
   6407      1     83     20      0.4602          0.6804E+06
   6408      1     83     21      0.4227          0.6804E+06
   6409      1     83     22      0.3923          0.6804E+06
   6410      1     83     23      0.3560          0.6804E+06
   6411      1     83     24      0.3226          0.6804E+06
   6412      1     83     25      0.2831          0.6804E+06
   6413      1     83     26      0.2420          0.6804E+06
   6414      1     83     27      0.2066          0.6804E+06
   6415      1     83     28      0.1686          0.6804E+06
   6416      1     83     29      0.1354          0.6804E+06
   6417      1     83     30      0.1159          0.6804E+06
   6418      1     83     31      0.1014          0.6804E+06
   6419      1     83     32      0.9273E-01      0.6804E+06
   6420      1     83     33      0.8520E-01      0.6804E+06
   6421      1     83     34      0.7963E-01      0.6804E+06
   6422      1     83     35      0.7584E-01      0.6804E+06
   6423      1     83     36      0.7254E-01      0.6804E+06
   6424      1     83     37      0.7060E-01      0.6804E+06
   6425      1     83     38      0.7009E-01      0.6804E+06
   6426      1     83     39      0.7160E-01      0.6804E+06
   6427      1     83     40      0.7453E-01      0.6804E+06
   6428      1     83     41      0.7913E-01      0.6804E+06
   6429      1     83     42      0.8310E-01      0.6804E+06
   6430      1     83     43      0.8644E-01      0.6804E+06
   6431      1     83     44      0.8984E-01      0.6804E+06
   6432      1     83     45      0.9203E-01      0.6804E+06
   6433      1     83     46      0.9308E-01      0.6804E+06
   6434      1     83     47      0.9360E-01      0.6804E+06
   6435      1     83     48      0.9308E-01      0.6804E+06
   6436      1     83     49      0.9166E-01      0.6804E+06
   6437      1     83     50      0.9102E-01      0.6804E+06
   6438      1     83     51      0.9196E-01      0.6804E+06
   6439      1     83     52      0.9631E-01      0.6804E+06
   6440      1     83     53      0.1034          0.6804E+06
   6441      1     83     54      0.1127          0.6804E+06
   6442      1     83     55      0.1222          0.6804E+06
   6443      1     83     56      0.1318          0.6804E+06
   6444      1     83     57      0.1448          0.6804E+06
   6445      1     83     58      0.1583          0.6804E+06
   6446      1     83     59      0.1710          0.6804E+06
   6447      1     83     60      0.1849          0.6804E+06
   6448      1     83     61      0.1956          0.6804E+06
   6449      1     83     62      0.2064          0.6804E+06
   6450      1     83     63      0.2176          0.6804E+06
   6451      1     83     64      0.2264          0.6804E+06
   6452      1     83     65      0.2358          0.6804E+06
   6453      1     83     66      0.2462          0.6804E+06
   6454      1     83     67      0.2563          0.6804E+06
   6455      1     83     68      0.2671          0.6804E+06
   6456      1     83     69      0.2763          0.6804E+06
   6457      1     83     70      0.2870          0.6804E+06
   6458      1     83     71      0.2986          0.6804E+06
   6459      1     83     72      0.3077          0.6804E+06
   6460      1     83     73      0.3169          0.6804E+06
   6461      1     83     74      0.3249          0.6804E+06
   6462      1     83     75      0.3310          0.6804E+06
   6463      1     83     76      0.3361          0.6804E+06
   6464      1     83     77      0.3381          0.6804E+06
   6465      1     83     93      0.3245          0.6804E+06
   6466      1     83     94      0.3272          0.6804E+06
   6467      1     83     95      0.3299          0.6804E+06
   6468      1     83     96      0.3322          0.6804E+06
   6469      1     83     97      0.3344          0.6804E+06
   6470      1     83     98      0.3353          0.6804E+06
   6471      1     83     99      0.3350          0.6804E+06
   6472      1     83    100      0.3336          0.6804E+06
   6473      1     84      1      0.9842          0.6804E+06
   6474      1     84      2      0.9714          0.6804E+06
   6475      1     84      3      0.9601          0.6804E+06
   6476      1     84      4      0.9499          0.6804E+06
   6477      1     84      5      0.9436          0.6804E+06
   6478      1     84      6      0.9385          0.6804E+06
   6479      1     84      7      0.9306          0.6804E+06
   6480      1     84      8      0.9193          0.6804E+06
   6481      1     84      9      0.9060          0.6804E+06
   6482      1     84     10      0.8864          0.6804E+06
   6483      1     84     11      0.8648          0.6804E+06
   6484      1     84     12      0.8339          0.6804E+06
   6485      1     84     13      0.7947          0.6804E+06
   6486      1     84     14      0.7563          0.6804E+06
   6487      1     84     15      0.7101          0.6804E+06
   6488      1     84     16      0.6693          0.6804E+06
   6489      1     84     17      0.6246          0.6804E+06
   6490      1     84     18      0.5839          0.6804E+06
   6491      1     84     19      0.5514          0.6804E+06
   6492      1     84     20      0.5184          0.6804E+06
   6493      1     84     21      0.4889          0.6804E+06
   6494      1     84     22      0.4576          0.6804E+06
   6495      1     84     23      0.4144          0.6804E+06
   6496      1     84     24      0.3732          0.6804E+06
   6497      1     84     25      0.3265          0.6804E+06
   6498      1     84     26      0.2805          0.6804E+06
   6499      1     84     27      0.2423          0.6804E+06
   6500      1     84     28      0.2028          0.6804E+06
   6501      1     84     29      0.1690          0.6804E+06
   6502      1     84     30      0.1462          0.6804E+06
   6503      1     84     31      0.1270          0.6804E+06
   6504      1     84     32      0.1144          0.6804E+06
   6505      1     84     33      0.1032          0.6804E+06
   6506      1     84     34      0.9457E-01      0.6804E+06
   6507      1     84     35      0.8780E-01      0.6804E+06
   6508      1     84     36      0.8105E-01      0.6804E+06
   6509      1     84     37      0.7706E-01      0.6804E+06
   6510      1     84     38      0.7524E-01      0.6804E+06
   6511      1     84     39      0.7590E-01      0.6804E+06
   6512      1     84     40      0.7921E-01      0.6804E+06
   6513      1     84     41      0.8587E-01      0.6804E+06
   6514      1     84     42      0.9323E-01      0.6804E+06
   6515      1     84     43      0.9840E-01      0.6804E+06
   6516      1     84     44      0.1035          0.6804E+06
   6517      1     84     45      0.1076          0.6804E+06
   6518      1     84     46      0.1095          0.6804E+06
   6519      1     84     47      0.1103          0.6804E+06
   6520      1     84     48      0.1097          0.6804E+06
   6521      1     84     49      0.1079          0.6804E+06
   6522      1     84     50      0.1068          0.6804E+06
   6523      1     84     51      0.1084          0.6804E+06
   6524      1     84     52      0.1140          0.6804E+06
   6525      1     84     53      0.1223          0.6804E+06
   6526      1     84     54      0.1333          0.6804E+06
   6527      1     84     55      0.1446          0.6804E+06
   6528      1     84     56      0.1556          0.6804E+06
   6529      1     84     57      0.1696          0.6804E+06
   6530      1     84     58      0.1837          0.6804E+06
   6531      1     84     59      0.1967          0.6804E+06
   6532      1     84     60      0.2114          0.6804E+06
   6533      1     84     61      0.2228          0.6804E+06
   6534      1     84     62      0.2339          0.6804E+06
   6535      1     84     63      0.2447          0.6804E+06
   6536      1     84     64      0.2522          0.6804E+06
   6537      1     84     65      0.2589          0.6804E+06
   6538      1     84     66      0.2654          0.6804E+06
   6539      1     84     67      0.2731          0.6804E+06
   6540      1     84     68      0.2817          0.6804E+06
   6541      1     84     69      0.2889          0.6804E+06
   6542      1     84     70      0.2972          0.6804E+06
   6543      1     84     71      0.3072          0.6804E+06
   6544      1     84     72      0.3147          0.6804E+06
   6545      1     84     73      0.3223          0.6804E+06
   6546      1     84     74      0.3292          0.6804E+06
   6547      1     84     75      0.3346          0.6804E+06
   6548      1     84     76      0.3388          0.6804E+06
   6549      1     84     77      0.3398          0.6804E+06
   6550      1     84     78      0.3385          0.6804E+06
   6551      1     84     79      0.3366          0.6804E+06
   6552      1     84     80      0.3348          0.6804E+06
   6553      1     84     94      0.3300          0.6804E+06
   6554      1     84     95      0.3329          0.6804E+06
   6555      1     84     96      0.3355          0.6804E+06
   6556      1     84     97      0.3383          0.6804E+06
   6557      1     84     98      0.3393          0.6804E+06
   6558      1     84     99      0.3385          0.6804E+06
   6559      1     84    100      0.3364          0.6804E+06
   6560      1     85      1      0.9851          0.6804E+06
   6561      1     85      2      0.9739          0.6804E+06
   6562      1     85      3      0.9643          0.6804E+06
   6563      1     85      4      0.9552          0.6804E+06
   6564      1     85      5      0.9484          0.6804E+06
   6565      1     85      6      0.9428          0.6804E+06
   6566      1     85      7      0.9352          0.6804E+06
   6567      1     85      8      0.9253          0.6804E+06
   6568      1     85      9      0.9141          0.6804E+06
   6569      1     85     10      0.8975          0.6804E+06
   6570      1     85     11      0.8790          0.6804E+06
   6571      1     85     12      0.8511          0.6804E+06
   6572      1     85     13      0.8140          0.6804E+06
   6573      1     85     14      0.7764          0.6804E+06
   6574      1     85     15      0.7303          0.6804E+06
   6575      1     85     16      0.6897          0.6804E+06
   6576      1     85     17      0.6478          0.6804E+06
   6577      1     85     18      0.6139          0.6804E+06
   6578      1     85     19      0.5904          0.6804E+06
   6579      1     85     20      0.5688          0.6804E+06
   6580      1     85     21      0.5502          0.6804E+06
   6581      1     85     22      0.5192          0.6804E+06
   6582      1     85     23      0.4683          0.6804E+06
   6583      1     85     24      0.4203          0.6804E+06
   6584      1     85     25      0.3680          0.6804E+06
   6585      1     85     26      0.3183          0.6804E+06
   6586      1     85     27      0.2781          0.6804E+06
   6587      1     85     28      0.2371          0.6804E+06
   6588      1     85     29      0.2016          0.6804E+06
   6589      1     85     30      0.1764          0.6804E+06
   6590      1     85     31      0.1540          0.6804E+06
   6591      1     85     32      0.1384          0.6804E+06
   6592      1     85     33      0.1238          0.6804E+06
   6593      1     85     34      0.1125          0.6804E+06
   6594      1     85     35      0.1035          0.6804E+06
   6595      1     85     36      0.9425E-01      0.6804E+06
   6596      1     85     37      0.8752E-01      0.6804E+06
   6597      1     85     38      0.8307E-01      0.6804E+06
   6598      1     85     39      0.8269E-01      0.6804E+06
   6599      1     85     40      0.8671E-01      0.6804E+06
   6600      1     85     41      0.9372E-01      0.6804E+06
   6601      1     85     42      0.1019          0.6804E+06
   6602      1     85     43      0.1097          0.6804E+06
   6603      1     85     44      0.1181          0.6804E+06
   6604      1     85     45      0.1238          0.6804E+06
   6605      1     85     46      0.1266          0.6804E+06
   6606      1     85     47      0.1277          0.6804E+06
   6607      1     85     48      0.1268          0.6804E+06
   6608      1     85     49      0.1242          0.6804E+06
   6609      1     85     50      0.1220          0.6804E+06
   6610      1     85     51      0.1240          0.6804E+06
   6611      1     85     52      0.1306          0.6804E+06
   6612      1     85     53      0.1402          0.6804E+06
   6613      1     85     54      0.1527          0.6804E+06
   6614      1     85     55      0.1658          0.6804E+06
   6615      1     85     56      0.1781          0.6804E+06
   6616      1     85     57      0.1930          0.6804E+06
   6617      1     85     58      0.2078          0.6804E+06
   6618      1     85     59      0.2212          0.6804E+06
   6619      1     85     60      0.2367          0.6804E+06
   6620      1     85     61      0.2491          0.6804E+06
   6621      1     85     62      0.2610          0.6804E+06
   6622      1     85     63      0.2708          0.6804E+06
   6623      1     85     64      0.2763          0.6804E+06
   6624      1     85     65      0.2798          0.6804E+06
   6625      1     85     66      0.2834          0.6804E+06
   6626      1     85     67      0.2877          0.6804E+06
   6627      1     85     68      0.2941          0.6804E+06
   6628      1     85     69      0.3002          0.6804E+06
   6629      1     85     70      0.3069          0.6804E+06
   6630      1     85     71      0.3145          0.6804E+06
   6631      1     85     72      0.3201          0.6804E+06
   6632      1     85     73      0.3260          0.6804E+06
   6633      1     85     74      0.3313          0.6804E+06
   6634      1     85     75      0.3356          0.6804E+06
   6635      1     85     76      0.3386          0.6804E+06
   6636      1     85     77      0.3392          0.6804E+06
   6637      1     85     78      0.3377          0.6804E+06
   6638      1     85     79      0.3360          0.6804E+06
   6639      1     85     80      0.3344          0.6804E+06
   6640      1     85     81      0.3324          0.6804E+06
   6641      1     85     82      0.3301          0.6804E+06
   6642      1     85     95      0.3351          0.6804E+06
   6643      1     85     96      0.3376          0.6804E+06
   6644      1     85     97      0.3401          0.6804E+06
   6645      1     85     98      0.3411          0.6804E+06
   6646      1     85     99      0.3404          0.6804E+06
   6647      1     85    100      0.3384          0.6804E+06
   6648      1     86      1      0.9855          0.6804E+06
   6649      1     86      2      0.9757          0.6804E+06
   6650      1     86      3      0.9674          0.6804E+06
   6651      1     86      4      0.9592          0.6804E+06
   6652      1     86      5      0.9524          0.6804E+06
   6653      1     86      6      0.9466          0.6804E+06
   6654      1     86      7      0.9393          0.6804E+06
   6655      1     86      8      0.9304          0.6804E+06
   6656      1     86      9      0.9207          0.6804E+06
   6657      1     86     10      0.9070          0.6804E+06
   6658      1     86     11      0.8916          0.6804E+06
   6659      1     86     12      0.8672          0.6804E+06
   6660      1     86     13      0.8310          0.6804E+06
   6661      1     86     14      0.7931          0.6804E+06
   6662      1     86     15      0.7462          0.6804E+06
   6663      1     86     16      0.7049          0.6804E+06
   6664      1     86     17      0.6641          0.6804E+06
   6665      1     86     18      0.6349          0.6804E+06
   6666      1     86     19      0.6180          0.6804E+06
   6667      1     86     20      0.6034          0.6804E+06
   6668      1     86     21      0.5916          0.6804E+06
   6669      1     86     22      0.5612          0.6804E+06
   6670      1     86     23      0.5063          0.6804E+06
   6671      1     86     24      0.4556          0.6804E+06
   6672      1     86     25      0.4009          0.6804E+06
   6673      1     86     26      0.3494          0.6804E+06
   6674      1     86     27      0.3078          0.6804E+06
   6675      1     86     28      0.2656          0.6804E+06
   6676      1     86     29      0.2287          0.6804E+06
   6677      1     86     30      0.2021          0.6804E+06
   6678      1     86     31      0.1776          0.6804E+06
   6679      1     86     32      0.1602          0.6804E+06
   6680      1     86     33      0.1437          0.6804E+06
   6681      1     86     34      0.1306          0.6804E+06
   6682      1     86     35      0.1205          0.6804E+06
   6683      1     86     36      0.1101          0.6804E+06
   6684      1     86     37      0.1013          0.6804E+06
   6685      1     86     38      0.9466E-01      0.6804E+06
   6686      1     86     39      0.9319E-01      0.6804E+06
   6687      1     86     40      0.9788E-01      0.6804E+06
   6688      1     86     41      0.1051          0.6804E+06
   6689      1     86     42      0.1140          0.6804E+06
   6690      1     86     43      0.1231          0.6804E+06
   6691      1     86     44      0.1331          0.6804E+06
   6692      1     86     45      0.1390          0.6804E+06
   6693      1     86     46      0.1419          0.6804E+06
   6694      1     86     47      0.1431          0.6804E+06
   6695      1     86     48      0.1420          0.6804E+06
   6696      1     86     49      0.1384          0.6804E+06
   6697      1     86     50      0.1353          0.6804E+06
   6698      1     86     51      0.1373          0.6804E+06
   6699      1     86     52      0.1452          0.6804E+06
   6700      1     86     53      0.1563          0.6804E+06
   6701      1     86     54      0.1700          0.6804E+06
   6702      1     86     55      0.1844          0.6804E+06
   6703      1     86     56      0.1973          0.6804E+06
   6704      1     86     57      0.2125          0.6804E+06
   6705      1     86     58      0.2274          0.6804E+06
   6706      1     86     59      0.2409          0.6804E+06
   6707      1     86     60      0.2565          0.6804E+06
   6708      1     86     61      0.2695          0.6804E+06
   6709      1     86     62      0.2835          0.6804E+06
   6710      1     86     63      0.2917          0.6804E+06
   6711      1     86     64      0.2942          0.6804E+06
   6712      1     86     65      0.2942          0.6804E+06
   6713      1     86     66      0.2955          0.6804E+06
   6714      1     86     67      0.2987          0.6804E+06
   6715      1     86     68      0.3035          0.6804E+06
   6716      1     86     69      0.3083          0.6804E+06
   6717      1     86     70      0.3140          0.6804E+06
   6718      1     86     71      0.3193          0.6804E+06
   6719      1     86     72      0.3234          0.6804E+06
   6720      1     86     73      0.3277          0.6804E+06
   6721      1     86     74      0.3315          0.6804E+06
   6722      1     86     75      0.3342          0.6804E+06
   6723      1     86     76      0.3360          0.6804E+06
   6724      1     86     77      0.3364          0.6804E+06
   6725      1     86     78      0.3358          0.6804E+06
   6726      1     86     79      0.3346          0.6804E+06
   6727      1     86     80      0.3333          0.6804E+06
   6728      1     86     81      0.3318          0.6804E+06
   6729      1     86     82      0.3300          0.6804E+06
   6730      1     86     83      0.3282          0.6804E+06
   6731      1     86     84      0.3265          0.6804E+06
   6732      1     87      1      0.9846          0.6804E+06
   6733      1     87      2      0.9765          0.6804E+06
   6734      1     87      3      0.9696          0.6804E+06
   6735      1     87      4      0.9623          0.6804E+06
   6736      1     87      5      0.9557          0.6804E+06
   6737      1     87      6      0.9500          0.6804E+06
   6738      1     87      7      0.9431          0.6804E+06
   6739      1     87      8      0.9350          0.6804E+06
   6740      1     87      9      0.9266          0.6804E+06
   6741      1     87     10      0.9151          0.6804E+06
   6742      1     87     11      0.9029          0.6804E+06
   6743      1     87     12      0.8834          0.6804E+06
   6744      1     87     13      0.8484          0.6804E+06
   6745      1     87     14      0.8102          0.6804E+06
   6746      1     87     15      0.7640          0.6804E+06
   6747      1     87     16      0.7228          0.6804E+06
   6748      1     87     17      0.6824          0.6804E+06
   6749      1     87     18      0.6561          0.6804E+06
   6750      1     87     19      0.6434          0.6804E+06
   6751      1     87     20      0.6288          0.6804E+06
   6752      1     87     21      0.6099          0.6804E+06
   6753      1     87     22      0.5807          0.6804E+06
   6754      1     87     23      0.5333          0.6804E+06
   6755      1     87     24      0.4860          0.6804E+06
   6756      1     87     25      0.4325          0.6804E+06
   6757      1     87     26      0.3809          0.6804E+06
   6758      1     87     27      0.3388          0.6804E+06
   6759      1     87     28      0.2957          0.6804E+06
   6760      1     87     29      0.2578          0.6804E+06
   6761      1     87     30      0.2300          0.6804E+06
   6762      1     87     31      0.2041          0.6804E+06
   6763      1     87     32      0.1854          0.6804E+06
   6764      1     87     33      0.1678          0.6804E+06
   6765      1     87     34      0.1536          0.6804E+06
   6766      1     87     35      0.1427          0.6804E+06
   6767      1     87     36      0.1319          0.6804E+06
   6768      1     87     37      0.1232          0.6804E+06
   6769      1     87     38      0.1179          0.6804E+06
   6770      1     87     39      0.1161          0.6804E+06
   6771      1     87     40      0.1185          0.6804E+06
   6772      1     87     41      0.1230          0.6804E+06
   6773      1     87     42      0.1327          0.6804E+06
   6774      1     87     43      0.1428          0.6804E+06
   6775      1     87     44      0.1536          0.6804E+06
   6776      1     87     45      0.1606          0.6804E+06
   6777      1     87     46      0.1636          0.6804E+06
   6778      1     87     47      0.1645          0.6804E+06
   6779      1     87     48      0.1623          0.6804E+06
   6780      1     87     49      0.1561          0.6804E+06
   6781      1     87     50      0.1515          0.6804E+06
   6782      1     87     51      0.1535          0.6804E+06
   6783      1     87     52      0.1623          0.6804E+06
   6784      1     87     53      0.1751          0.6804E+06
   6785      1     87     54      0.1906          0.6804E+06
   6786      1     87     55      0.2061          0.6804E+06
   6787      1     87     56      0.2192          0.6804E+06
   6788      1     87     57      0.2333          0.6804E+06
   6789      1     87     58      0.2476          0.6804E+06
   6790      1     87     59      0.2603          0.6804E+06
   6791      1     87     60      0.2750          0.6804E+06
   6792      1     87     61      0.2880          0.6804E+06
   6793      1     87     62      0.3038          0.6804E+06
   6794      1     87     63      0.3098          0.6804E+06
   6795      1     87     64      0.3096          0.6804E+06
   6796      1     87     65      0.3069          0.6804E+06
   6797      1     87     66      0.3062          0.6804E+06
   6798      1     87     67      0.3083          0.6804E+06
   6799      1     87     68      0.3114          0.6804E+06
   6800      1     87     69      0.3149          0.6804E+06
   6801      1     87     70      0.3202          0.6804E+06
   6802      1     87     71      0.3235          0.6804E+06
   6803      1     87     72      0.3261          0.6804E+06
   6804      1     87     73      0.3287          0.6804E+06
   6805      1     87     74      0.3304          0.6804E+06
   6806      1     87     75      0.3316          0.6804E+06
   6807      1     87     76      0.3324          0.6804E+06
   6808      1     87     77      0.3326          0.6804E+06
   6809      1     87     78      0.3327          0.6804E+06
   6810      1     87     79      0.3323          0.6804E+06
   6811      1     87     80      0.3316          0.6804E+06
   6812      1     87     81      0.3306          0.6804E+06
   6813      1     87     82      0.3294          0.6804E+06
   6814      1     87     83      0.3280          0.6804E+06
   6815      1     87     84      0.3268          0.6804E+06
   6816      1     87     85      0.3259          0.6804E+06
   6817      1     87     86      0.3252          0.6804E+06
   6818      1     88      1      0.9821          0.6804E+06
   6819      1     88      2      0.9755          0.6804E+06
   6820      1     88      3      0.9698          0.6804E+06
   6821      1     88      4      0.9636          0.6804E+06
   6822      1     88      5      0.9574          0.6804E+06
   6823      1     88      6      0.9519          0.6804E+06
   6824      1     88      7      0.9453          0.6804E+06
   6825      1     88      8      0.9377          0.6804E+06
   6826      1     88      9      0.9298          0.6804E+06
   6827      1     88     10      0.9193          0.6804E+06
   6828      1     88     11      0.9080          0.6804E+06
   6829      1     88     12      0.8898          0.6804E+06
   6830      1     88     13      0.8582          0.6804E+06
   6831      1     88     14      0.8239          0.6804E+06
   6832      1     88     15      0.7824          0.6804E+06
   6833      1     88     16      0.7458          0.6804E+06
   6834      1     88     17      0.7097          0.6804E+06
   6835      1     88     18      0.6842          0.6804E+06
   6836      1     88     19      0.6688          0.6804E+06
   6837      1     88     20      0.6502          0.6804E+06
   6838      1     88     21      0.6260          0.6804E+06
   6839      1     88     22      0.5967          0.6804E+06
   6840      1     88     23      0.5534          0.6804E+06
   6841      1     88     24      0.5099          0.6804E+06
   6842      1     88     25      0.4586          0.6804E+06
   6843      1     88     26      0.4080          0.6804E+06
   6844      1     88     27      0.3659          0.6804E+06
   6845      1     88     28      0.3223          0.6804E+06
   6846      1     88     29      0.2838          0.6804E+06
   6847      1     88     30      0.2554          0.6804E+06
   6848      1     88     31      0.2291          0.6804E+06
   6849      1     88     32      0.2103          0.6804E+06
   6850      1     88     33      0.1926          0.6804E+06
   6851      1     88     34      0.1782          0.6804E+06
   6852      1     88     35      0.1674          0.6804E+06
   6853      1     88     36      0.1573          0.6804E+06
   6854      1     88     37      0.1509          0.6804E+06
   6855      1     88     38      0.1495          0.6804E+06
   6856      1     88     39      0.1487          0.6804E+06
   6857      1     88     40      0.1479          0.6804E+06
   6858      1     88     41      0.1499          0.6804E+06
   6859      1     88     42      0.1588          0.6804E+06
   6860      1     88     43      0.1684          0.6804E+06
   6861      1     88     44      0.1789          0.6804E+06
   6862      1     88     45      0.1866          0.6804E+06
   6863      1     88     46      0.1898          0.6804E+06
   6864      1     88     47      0.1899          0.6804E+06
   6865      1     88     48      0.1867          0.6804E+06
   6866      1     88     49      0.1810          0.6804E+06
   6867      1     88     50      0.1754          0.6804E+06
   6868      1     88     51      0.1767          0.6804E+06
   6869      1     88     52      0.1854          0.6804E+06
   6870      1     88     53      0.1985          0.6804E+06
   6871      1     88     54      0.2139          0.6804E+06
   6872      1     88     55      0.2281          0.6804E+06
   6873      1     88     56      0.2402          0.6804E+06
   6874      1     88     57      0.2541          0.6804E+06
   6875      1     88     58      0.2660          0.6804E+06
   6876      1     88     59      0.2763          0.6804E+06
   6877      1     88     60      0.2887          0.6804E+06
   6878      1     88     61      0.2998          0.6804E+06
   6879      1     88     62      0.3118          0.6804E+06
   6880      1     88     63      0.3173          0.6804E+06
   6881      1     88     64      0.3178          0.6804E+06
   6882      1     88     65      0.3156          0.6804E+06
   6883      1     88     66      0.3146          0.6804E+06
   6884      1     88     67      0.3147          0.6804E+06
   6885      1     88     68      0.3162          0.6804E+06
   6886      1     88     69      0.3191          0.6804E+06
   6887      1     88     70      0.3238          0.6804E+06
   6888      1     88     71      0.3264          0.6804E+06
   6889      1     88     72      0.3279          0.6804E+06
   6890      1     88     73      0.3289          0.6804E+06
   6891      1     88     74      0.3288          0.6804E+06
   6892      1     88     75      0.3285          0.6804E+06
   6893      1     88     76      0.3284          0.6804E+06
   6894      1     88     77      0.3286          0.6804E+06
   6895      1     88     78      0.3293          0.6804E+06
   6896      1     88     79      0.3297          0.6804E+06
   6897      1     88     80      0.3296          0.6804E+06
   6898      1     88     81      0.3292          0.6804E+06
   6899      1     88     82      0.3285          0.6804E+06
   6900      1     88     83      0.3275          0.6804E+06
   6901      1     88     84      0.3266          0.6804E+06
   6902      1     88     85      0.3260          0.6804E+06
   6903      1     88     86      0.3256          0.6804E+06
   6904      1     88     87      0.3256          0.6804E+06
   6905      1     89      1      0.9788          0.6804E+06
   6906      1     89      2      0.9734          0.6804E+06
   6907      1     89      3      0.9686          0.6804E+06
   6908      1     89      4      0.9631          0.6804E+06
   6909      1     89      5      0.9575          0.6804E+06
   6910      1     89      6      0.9523          0.6804E+06
   6911      1     89      7      0.9457          0.6804E+06
   6912      1     89      8      0.9381          0.6804E+06
   6913      1     89      9      0.9303          0.6804E+06
   6914      1     89     10      0.9195          0.6804E+06
   6915      1     89     11      0.9077          0.6804E+06
   6916      1     89     12      0.8887          0.6804E+06
   6917      1     89     13      0.8618          0.6804E+06
   6918      1     89     14      0.8333          0.6804E+06
   6919      1     89     15      0.7980          0.6804E+06
   6920      1     89     16      0.7671          0.6804E+06
   6921      1     89     17      0.7356          0.6804E+06
   6922      1     89     18      0.7101          0.6804E+06
   6923      1     89     19      0.6913          0.6804E+06
   6924      1     89     20      0.6689          0.6804E+06
   6925      1     89     21      0.6418          0.6804E+06
   6926      1     89     22      0.6119          0.6804E+06
   6927      1     89     23      0.5701          0.6804E+06
   6928      1     89     24      0.5286          0.6804E+06
   6929      1     89     25      0.4788          0.6804E+06
   6930      1     89     26      0.4288          0.6804E+06
   6931      1     89     27      0.3868          0.6804E+06
   6932      1     89     28      0.3426          0.6804E+06
   6933      1     89     29      0.3037          0.6804E+06
   6934      1     89     30      0.2753          0.6804E+06
   6935      1     89     31      0.2495          0.6804E+06
   6936      1     89     32      0.2314          0.6804E+06
   6937      1     89     33      0.2139          0.6804E+06
   6938      1     89     34      0.2005          0.6804E+06
   6939      1     89     35      0.1911          0.6804E+06
   6940      1     89     36      0.1828          0.6804E+06
   6941      1     89     37      0.1782          0.6804E+06
   6942      1     89     38      0.1789          0.6804E+06
   6943      1     89     39      0.1800          0.6804E+06
   6944      1     89     40      0.1795          0.6804E+06
   6945      1     89     41      0.1821          0.6804E+06
   6946      1     89     42      0.1886          0.6804E+06
   6947      1     89     43      0.1959          0.6804E+06
   6948      1     89     44      0.2050          0.6804E+06
   6949      1     89     45      0.2122          0.6804E+06
   6950      1     89     46      0.2153          0.6804E+06
   6951      1     89     47      0.2153          0.6804E+06
   6952      1     89     48      0.2123          0.6804E+06
   6953      1     89     49      0.2086          0.6804E+06
   6954      1     89     50      0.2041          0.6804E+06
   6955      1     89     51      0.2053          0.6804E+06
   6956      1     89     52      0.2126          0.6804E+06
   6957      1     89     53      0.2234          0.6804E+06
   6958      1     89     54      0.2364          0.6804E+06
   6959      1     89     55      0.2481          0.6804E+06
   6960      1     89     56      0.2582          0.6804E+06
   6961      1     89     57      0.2700          0.6804E+06
   6962      1     89     58      0.2796          0.6804E+06
   6963      1     89     59      0.2877          0.6804E+06
   6964      1     89     60      0.2975          0.6804E+06
   6965      1     89     61      0.3061          0.6804E+06
   6966      1     89     62      0.3147          0.6804E+06
   6967      1     89     63      0.3195          0.6804E+06
   6968      1     89     64      0.3208          0.6804E+06
   6969      1     89     65      0.3200          0.6804E+06
   6970      1     89     66      0.3195          0.6804E+06
   6971      1     89     67      0.3194          0.6804E+06
   6972      1     89     68      0.3205          0.6804E+06
   6973      1     89     69      0.3225          0.6804E+06
   6974      1     89     70      0.3248          0.6804E+06
   6975      1     89     71      0.3277          0.6804E+06
   6976      1     89     72      0.3289          0.6804E+06
   6977      1     89     73      0.3285          0.6804E+06
   6978      1     89     74      0.3274          0.6804E+06
   6979      1     89     75      0.3258          0.6804E+06
   6980      1     89     76      0.3249          0.6804E+06
   6981      1     89     77      0.3253          0.6804E+06
   6982      1     89     78      0.3267          0.6804E+06
   6983      1     89     79      0.3277          0.6804E+06
   6984      1     89     80      0.3281          0.6804E+06
   6985      1     89     81      0.3280          0.6804E+06
   6986      1     89     82      0.3276          0.6804E+06
   6987      1     89     83      0.3269          0.6804E+06
   6988      1     89     84      0.3262          0.6804E+06
   6989      1     89     85      0.3258          0.6804E+06
   6990      1     89     86      0.3255          0.6804E+06
   6991      1     89     87      0.3256          0.6804E+06
   6992      1     89     88      0.3261          0.6804E+06
   6993      1     89     89      0.3270          0.6804E+06
   6994      1     90      1      0.9739          0.6804E+06
   6995      1     90      2      0.9699          0.6804E+06
   6996      1     90      3      0.9659          0.6804E+06
   6997      1     90      4      0.9611          0.6804E+06
   6998      1     90      5      0.9560          0.6804E+06
   6999      1     90      6      0.9509          0.6804E+06
   7000      1     90      7      0.9442          0.6804E+06
   7001      1     90      8      0.9366          0.6804E+06
   7002      1     90      9      0.9287          0.6804E+06
   7003      1     90     10      0.9177          0.6804E+06
   7004      1     90     11      0.9057          0.6804E+06
   7005      1     90     12      0.8879          0.6804E+06
   7006      1     90     13      0.8653          0.6804E+06
   7007      1     90     14      0.8423          0.6804E+06
   7008      1     90     15      0.8140          0.6804E+06
   7009      1     90     16      0.7890          0.6804E+06
   7010      1     90     17      0.7619          0.6804E+06
   7011      1     90     18      0.7371          0.6804E+06
   7012      1     90     19      0.7163          0.6804E+06
   7013      1     90     20      0.6912          0.6804E+06
   7014      1     90     21      0.6620          0.6804E+06
   7015      1     90     22      0.6315          0.6804E+06
   7016      1     90     23      0.5898          0.6804E+06
   7017      1     90     24      0.5492          0.6804E+06
   7018      1     90     25      0.5003          0.6804E+06
   7019      1     90     26      0.4506          0.6804E+06
   7020      1     90     27      0.4083          0.6804E+06
   7021      1     90     28      0.3635          0.6804E+06
   7022      1     90     29      0.3235          0.6804E+06
   7023      1     90     30      0.2953          0.6804E+06
   7024      1     90     31      0.2710          0.6804E+06
   7025      1     90     32      0.2540          0.6804E+06
   7026      1     90     33      0.2382          0.6804E+06
   7027      1     90     34      0.2267          0.6804E+06
   7028      1     90     35      0.2191          0.6804E+06
   7029      1     90     36      0.2127          0.6804E+06
   7030      1     90     37      0.2097          0.6804E+06
   7031      1     90     38      0.2106          0.6804E+06
   7032      1     90     39      0.2137          0.6804E+06
   7033      1     90     40      0.2179          0.6804E+06
   7034      1     90     41      0.2216          0.6804E+06
   7035      1     90     42      0.2263          0.6804E+06
   7036      1     90     43      0.2315          0.6804E+06
   7037      1     90     44      0.2384          0.6804E+06
   7038      1     90     45      0.2435          0.6804E+06
   7039      1     90     46      0.2461          0.6804E+06
   7040      1     90     47      0.2474          0.6804E+06
   7041      1     90     48      0.2468          0.6804E+06
   7042      1     90     49      0.2453          0.6804E+06
   7043      1     90     50      0.2441          0.6804E+06
   7044      1     90     51      0.2455          0.6804E+06
   7045      1     90     52      0.2496          0.6804E+06
   7046      1     90     53      0.2556          0.6804E+06
   7047      1     90     54      0.2638          0.6804E+06
   7048      1     90     55      0.2718          0.6804E+06
   7049      1     90     56      0.2789          0.6804E+06
   7050      1     90     57      0.2874          0.6804E+06
   7051      1     90     58      0.2943          0.6804E+06
   7052      1     90     59      0.2996          0.6804E+06
   7053      1     90     60      0.3058          0.6804E+06
   7054      1     90     61      0.3115          0.6804E+06
   7055      1     90     62      0.3165          0.6804E+06
   7056      1     90     63      0.3203          0.6804E+06
   7057      1     90     64      0.3223          0.6804E+06
   7058      1     90     65      0.3230          0.6804E+06
   7059      1     90     66      0.3234          0.6804E+06
   7060      1     90     67      0.3240          0.6804E+06
   7061      1     90     68      0.3250          0.6804E+06
   7062      1     90     69      0.3260          0.6804E+06
   7063      1     90     70      0.3269          0.6804E+06
   7064      1     90     71      0.3282          0.6804E+06
   7065      1     90     72      0.3284          0.6804E+06
   7066      1     90     73      0.3275          0.6804E+06
   7067      1     90     74      0.3264          0.6804E+06
   7068      1     90     75      0.3236          0.6804E+06
   7069      1     90     76      0.3221          0.6804E+06
   7070      1     90     77      0.3227          0.6804E+06
   7071      1     90     78      0.3248          0.6804E+06
   7072      1     90     79      0.3262          0.6804E+06
   7073      1     90     80      0.3268          0.6804E+06
   7074      1     90     81      0.3270          0.6804E+06
   7075      1     90     82      0.3267          0.6804E+06
   7076      1     90     83      0.3262          0.6804E+06
   7077      1     90     84      0.3256          0.6804E+06
   7078      1     90     85      0.3252          0.6804E+06
   7079      1     90     86      0.3250          0.6804E+06
   7080      1     90     87      0.3252          0.6804E+06
   7081      1     90     88      0.3258          0.6804E+06
   7082      1     90     89      0.3269          0.6804E+06
   7083      1     90     90      0.3285          0.6804E+06
   7084      1     91      1      0.9689          0.6804E+06
   7085      1     91      2      0.9659          0.6804E+06
   7086      1     91      3      0.9626          0.6804E+06
   7087      1     91      4      0.9584          0.6804E+06
   7088      1     91      5      0.9534          0.6804E+06
   7089      1     91      6      0.9484          0.6804E+06
   7090      1     91      7      0.9417          0.6804E+06
   7091      1     91      8      0.9340          0.6804E+06
   7092      1     91      9      0.9260          0.6804E+06
   7093      1     91     10      0.9152          0.6804E+06
   7094      1     91     11      0.9036          0.6804E+06
   7095      1     91     12      0.8874          0.6804E+06
   7096      1     91     13      0.8679          0.6804E+06
   7097      1     91     14      0.8487          0.6804E+06
   7098      1     91     15      0.8256          0.6804E+06
   7099      1     91     16      0.8052          0.6804E+06
   7100      1     91     17      0.7816          0.6804E+06
   7101      1     91     18      0.7580          0.6804E+06
   7102      1     91     19      0.7369          0.6804E+06
   7103      1     91     20      0.7109          0.6804E+06
   7104      1     91     21      0.6811          0.6804E+06
   7105      1     91     22      0.6502          0.6804E+06
   7106      1     91     23      0.6081          0.6804E+06
   7107      1     91     24      0.5674          0.6804E+06
   7108      1     91     25      0.5184          0.6804E+06
   7109      1     91     26      0.4685          0.6804E+06
   7110      1     91     27      0.4259          0.6804E+06
   7111      1     91     28      0.3806          0.6804E+06
   7112      1     91     29      0.3400          0.6804E+06
   7113      1     91     30      0.3121          0.6804E+06
   7114      1     91     31      0.2892          0.6804E+06
   7115      1     91     32      0.2736          0.6804E+06
   7116      1     91     33      0.2599          0.6804E+06
   7117      1     91     34      0.2504          0.6804E+06
   7118      1     91     35      0.2444          0.6804E+06
   7119      1     91     36      0.2399          0.6804E+06
   7120      1     91     37      0.2383          0.6804E+06
   7121      1     91     38      0.2396          0.6804E+06
   7122      1     91     39      0.2443          0.6804E+06
   7123      1     91     40      0.2520          0.6804E+06
   7124      1     91     41      0.2567          0.6804E+06
   7125      1     91     42      0.2604          0.6804E+06
   7126      1     91     43      0.2640          0.6804E+06
   7127      1     91     44      0.2685          0.6804E+06
   7128      1     91     45      0.2719          0.6804E+06
   7129      1     91     46      0.2739          0.6804E+06
   7130      1     91     47      0.2766          0.6804E+06
   7131      1     91     48      0.2786          0.6804E+06
   7132      1     91     49      0.2793          0.6804E+06
   7133      1     91     50      0.2799          0.6804E+06
   7134      1     91     51      0.2810          0.6804E+06
   7135      1     91     52      0.2824          0.6804E+06
   7136      1     91     53      0.2847          0.6804E+06
   7137      1     91     54      0.2888          0.6804E+06
   7138      1     91     55      0.2931          0.6804E+06
   7139      1     91     56      0.2974          0.6804E+06
   7140      1     91     57      0.3030          0.6804E+06
   7141      1     91     58      0.3070          0.6804E+06
   7142      1     91     59      0.3095          0.6804E+06
   7143      1     91     60      0.3125          0.6804E+06
   7144      1     91     61      0.3158          0.6804E+06
   7145      1     91     62      0.3181          0.6804E+06
   7146      1     91     63      0.3209          0.6804E+06
   7147      1     91     64      0.3233          0.6804E+06
   7148      1     91     65      0.3249          0.6804E+06
   7149      1     91     66      0.3261          0.6804E+06
   7150      1     91     67      0.3273          0.6804E+06
   7151      1     91     68      0.3282          0.6804E+06
   7152      1     91     69      0.3286          0.6804E+06
   7153      1     91     70      0.3291          0.6804E+06
   7154      1     91     71      0.3293          0.6804E+06
   7155      1     91     72      0.3290          0.6804E+06
   7156      1     91     73      0.3280          0.6804E+06
   7157      1     91     74      0.3266          0.6804E+06
   7158      1     91     75      0.3243          0.6804E+06
   7159      1     91     76      0.3230          0.6804E+06
   7160      1     91     77      0.3235          0.6804E+06
   7161      1     91     78      0.3249          0.6804E+06
   7162      1     91     79      0.3259          0.6804E+06
   7163      1     91     80      0.3264          0.6804E+06
   7164      1     91     81      0.3265          0.6804E+06
   7165      1     91     82      0.3261          0.6804E+06
   7166      1     91     83      0.3256          0.6804E+06
   7167      1     91     84      0.3249          0.6804E+06
   7168      1     91     85      0.3245          0.6804E+06
   7169      1     91     86      0.3243          0.6804E+06
   7170      1     91     87      0.3246          0.6804E+06
   7171      1     91     88      0.3253          0.6804E+06
   7172      1     91     89      0.3266          0.6804E+06
   7173      1     91     90      0.3282          0.6804E+06
   7174      1     91     91      0.3299          0.6804E+06
   7175      1     91     92      0.3321          0.6804E+06
   7176      1     92      1      0.9627          0.6804E+06
   7177      1     92      2      0.9605          0.6804E+06
   7178      1     92      3      0.9579          0.6804E+06
   7179      1     92      4      0.9542          0.6804E+06
   7180      1     92      5      0.9495          0.6804E+06
   7181      1     92      6      0.9444          0.6804E+06
   7182      1     92      7      0.9378          0.6804E+06
   7183      1     92      8      0.9299          0.6804E+06
   7184      1     92      9      0.9220          0.6804E+06
   7185      1     92     10      0.9115          0.6804E+06
   7186      1     92     11      0.9007          0.6804E+06
   7187      1     92     12      0.8862          0.6804E+06
   7188      1     92     13      0.8697          0.6804E+06
   7189      1     92     14      0.8541          0.6804E+06
   7190      1     92     15      0.8356          0.6804E+06
   7191      1     92     16      0.8195          0.6804E+06
   7192      1     92     17      0.7996          0.6804E+06
   7193      1     92     18      0.7781          0.6804E+06
   7194      1     92     19      0.7577          0.6804E+06
   7195      1     92     20      0.7324          0.6804E+06
   7196      1     92     21      0.7030          0.6804E+06
   7197      1     92     22      0.6722          0.6804E+06
   7198      1     92     23      0.6297          0.6804E+06
   7199      1     92     24      0.5885          0.6804E+06
   7200      1     92     25      0.5389          0.6804E+06
   7201      1     92     26      0.4881          0.6804E+06
   7202      1     92     27      0.4449          0.6804E+06
   7203      1     92     28      0.3993          0.6804E+06
   7204      1     92     29      0.3600          0.6804E+06
   7205      1     92     30      0.3327          0.6804E+06
   7206      1     92     31      0.3104          0.6804E+06
   7207      1     92     32      0.2964          0.6804E+06
   7208      1     92     33      0.2851          0.6804E+06
   7209      1     92     34      0.2779          0.6804E+06
   7210      1     92     35      0.2738          0.6804E+06
   7211      1     92     36      0.2714          0.6804E+06
   7212      1     92     37      0.2714          0.6804E+06
   7213      1     92     38      0.2739          0.6804E+06
   7214      1     92     39      0.2796          0.6804E+06
   7215      1     92     40      0.2885          0.6804E+06
   7216      1     92     41      0.2952          0.6804E+06
   7217      1     92     42      0.2989          0.6804E+06
   7218      1     92     43      0.3008          0.6804E+06
   7219      1     92     44      0.3028          0.6804E+06
   7220      1     92     45      0.3046          0.6804E+06
   7221      1     92     46      0.3067          0.6804E+06
   7222      1     92     47      0.3110          0.6804E+06
   7223      1     92     48      0.3152          0.6804E+06
   7224      1     92     49      0.3181          0.6804E+06
   7225      1     92     50      0.3204          0.6804E+06
   7226      1     92     51      0.3210          0.6804E+06
   7227      1     92     52      0.3190          0.6804E+06
   7228      1     92     53      0.3173          0.6804E+06
   7229      1     92     54      0.3168          0.6804E+06
   7230      1     92     55      0.3168          0.6804E+06
   7231      1     92     56      0.3176          0.6804E+06
   7232      1     92     57      0.3197          0.6804E+06
   7233      1     92     58      0.3200          0.6804E+06
   7234      1     92     59      0.3200          0.6804E+06
   7235      1     92     60      0.3205          0.6804E+06
   7236      1     92     61      0.3210          0.6804E+06
   7237      1     92     62      0.3209          0.6804E+06
   7238      1     92     63      0.3228          0.6804E+06
   7239      1     92     64      0.3253          0.6804E+06
   7240      1     92     65      0.3272          0.6804E+06
   7241      1     92     66      0.3291          0.6804E+06
   7242      1     92     67      0.3303          0.6804E+06
   7243      1     92     68      0.3310          0.6804E+06
   7244      1     92     69      0.3313          0.6804E+06
   7245      1     92     70      0.3317          0.6804E+06
   7246      1     92     71      0.3314          0.6804E+06
   7247      1     92     72      0.3308          0.6804E+06
   7248      1     92     73      0.3298          0.6804E+06
   7249      1     92     74      0.3284          0.6804E+06
   7250      1     92     75      0.3269          0.6804E+06
   7251      1     92     76      0.3260          0.6804E+06
   7252      1     92     77      0.3260          0.6804E+06
   7253      1     92     78      0.3264          0.6804E+06
   7254      1     92     79      0.3267          0.6804E+06
   7255      1     92     80      0.3267          0.6804E+06
   7256      1     92     81      0.3264          0.6804E+06
   7257      1     92     82      0.3257          0.6804E+06
   7258      1     92     83      0.3250          0.6804E+06
   7259      1     92     84      0.3241          0.6804E+06
   7260      1     92     85      0.3235          0.6804E+06
   7261      1     92     86      0.3231          0.6804E+06
   7262      1     92     87      0.3235          0.6804E+06
   7263      1     92     88      0.3244          0.6804E+06
   7264      1     92     89      0.3259          0.6804E+06
   7265      1     92     90      0.3278          0.6804E+06
   7266      1     92     91      0.3296          0.6804E+06
   7267      1     92     92      0.3319          0.6804E+06
   7268      1     92     93      0.3339          0.6804E+06
   7269      1     93      1      0.9559          0.6804E+06
   7270      1     93      2      0.9544          0.6804E+06
   7271      1     93      3      0.9525          0.6804E+06
   7272      1     93      4      0.9491          0.6804E+06
   7273      1     93      5      0.9445          0.6804E+06
   7274      1     93      6      0.9395          0.6804E+06
   7275      1     93      7      0.9328          0.6804E+06
   7276      1     93      8      0.9249          0.6804E+06
   7277      1     93      9      0.9172          0.6804E+06
   7278      1     93     10      0.9072          0.6804E+06
   7279      1     93     11      0.8971          0.6804E+06
   7280      1     93     12      0.8842          0.6804E+06
   7281      1     93     13      0.8700          0.6804E+06
   7282      1     93     14      0.8569          0.6804E+06
   7283      1     93     15      0.8417          0.6804E+06
   7284      1     93     16      0.8285          0.6804E+06
   7285      1     93     17      0.8120          0.6804E+06
   7286      1     93     18      0.7934          0.6804E+06
   7287      1     93     19      0.7755          0.6804E+06
   7288      1     93     20      0.7525          0.6804E+06
   7289      1     93     21      0.7246          0.6804E+06
   7290      1     93     22      0.6946          0.6804E+06
   7291      1     93     23      0.6521          0.6804E+06
   7292      1     93     24      0.6101          0.6804E+06
   7293      1     93     25      0.5593          0.6804E+06
   7294      1     93     26      0.5072          0.6804E+06
   7295      1     93     27      0.4626          0.6804E+06
   7296      1     93     28      0.4159          0.6804E+06
   7297      1     93     29      0.3769          0.6804E+06
   7298      1     93     30      0.3506          0.6804E+06
   7299      1     93     31      0.3302          0.6804E+06
   7300      1     93     32      0.3185          0.6804E+06
   7301      1     93     33      0.3097          0.6804E+06
   7302      1     93     34      0.3048          0.6804E+06
   7303      1     93     35      0.3025          0.6804E+06
   7304      1     93     36      0.3019          0.6804E+06
   7305      1     93     37      0.3036          0.6804E+06
   7306      1     93     38      0.3071          0.6804E+06
   7307      1     93     39      0.3130          0.6804E+06
   7308      1     93     40      0.3204          0.6804E+06
   7309      1     93     41      0.3299          0.6804E+06
   7310      1     93     42      0.3346          0.6804E+06
   7311      1     93     43      0.3353          0.6804E+06
   7312      1     93     44      0.3355          0.6804E+06
   7313      1     93     45      0.3362          0.6804E+06
   7314      1     93     46      0.3385          0.6804E+06
   7315      1     93     47      0.3434          0.6804E+06
   7316      1     93     48      0.3483          0.6804E+06
   7317      1     93     49      0.3538          0.6804E+06
   7318      1     93     50      0.3589          0.6804E+06
   7319      1     93     51      0.3592          0.6804E+06
   7320      1     93     52      0.3522          0.6804E+06
   7321      1     93     53      0.3466          0.6804E+06
   7322      1     93     54      0.3418          0.6804E+06
   7323      1     93     55      0.3380          0.6804E+06
   7324      1     93     56      0.3356          0.6804E+06
   7325      1     93     57      0.3334          0.6804E+06
   7326      1     93     58      0.3311          0.6804E+06
   7327      1     93     59      0.3297          0.6804E+06
   7328      1     93     60      0.3289          0.6804E+06
   7329      1     93     61      0.3280          0.6804E+06
   7330      1     93     62      0.3271          0.6804E+06
   7331      1     93     63      0.3278          0.6804E+06
   7332      1     93     64      0.3291          0.6804E+06
   7333      1     93     65      0.3306          0.6804E+06
   7334      1     93     66      0.3319          0.6804E+06
   7335      1     93     67      0.3330          0.6804E+06
   7336      1     93     68      0.3337          0.6804E+06
   7337      1     93     69      0.3340          0.6804E+06
   7338      1     93     70      0.3342          0.6804E+06
   7339      1     93     71      0.3339          0.6804E+06
   7340      1     93     72      0.3333          0.6804E+06
   7341      1     93     73      0.3325          0.6804E+06
   7342      1     93     74      0.3315          0.6804E+06
   7343      1     93     75      0.3306          0.6804E+06
   7344      1     93     76      0.3297          0.6804E+06
   7345      1     93     77      0.3292          0.6804E+06
   7346      1     93     78      0.3287          0.6804E+06
   7347      1     93     79      0.3281          0.6804E+06
   7348      1     93     80      0.3275          0.6804E+06
   7349      1     93     81      0.3267          0.6804E+06
   7350      1     93     82      0.3256          0.6804E+06
   7351      1     93     83      0.3246          0.6804E+06
   7352      1     93     84      0.3234          0.6804E+06
   7353      1     93     85      0.3224          0.6804E+06
   7354      1     93     86      0.3218          0.6804E+06
   7355      1     93     87      0.3221          0.6804E+06
   7356      1     93     88      0.3232          0.6804E+06
   7357      1     93     89      0.3250          0.6804E+06
   7358      1     93     90      0.3272          0.6804E+06
   7359      1     93     91      0.3292          0.6804E+06
   7360      1     93     92      0.3316          0.6804E+06
   7361      1     93     93      0.3337          0.6804E+06
   7362      1     93     94      0.3360          0.6804E+06
   7363      1     94      1      0.9497          0.6804E+06
   7364      1     94      2      0.9487          0.6804E+06
   7365      1     94      3      0.9471          0.6804E+06
   7366      1     94      4      0.9441          0.6804E+06
   7367      1     94      5      0.9394          0.6804E+06
   7368      1     94      6      0.9342          0.6804E+06
   7369      1     94      7      0.9275          0.6804E+06
   7370      1     94      8      0.9198          0.6804E+06
   7371      1     94      9      0.9122          0.6804E+06
   7372      1     94     10      0.9027          0.6804E+06
   7373      1     94     11      0.8932          0.6804E+06
   7374      1     94     12      0.8813          0.6804E+06
   7375      1     94     13      0.8686          0.6804E+06
   7376      1     94     14      0.8571          0.6804E+06
   7377      1     94     15      0.8437          0.6804E+06
   7378      1     94     16      0.8321          0.6804E+06
   7379      1     94     17      0.8181          0.6804E+06
   7380      1     94     18      0.8030          0.6804E+06
   7381      1     94     19      0.7884          0.6804E+06
   7382      1     94     20      0.7688          0.6804E+06
   7383      1     94     21      0.7437          0.6804E+06
   7384      1     94     22      0.7152          0.6804E+06
   7385      1     94     23      0.6724          0.6804E+06
   7386      1     94     24      0.6295          0.6804E+06
   7387      1     94     25      0.5774          0.6804E+06
   7388      1     94     26      0.5238          0.6804E+06
   7389      1     94     27      0.4776          0.6804E+06
   7390      1     94     28      0.4286          0.6804E+06
   7391      1     94     29      0.3889          0.6804E+06
   7392      1     94     30      0.3637          0.6804E+06
   7393      1     94     31      0.3467          0.6804E+06
   7394      1     94     32      0.3378          0.6804E+06
   7395      1     94     33      0.3315          0.6804E+06
   7396      1     94     34      0.3285          0.6804E+06
   7397      1     94     35      0.3276          0.6804E+06
   7398      1     94     36      0.3281          0.6804E+06
   7399      1     94     37      0.3308          0.6804E+06
   7400      1     94     38      0.3351          0.6804E+06
   7401      1     94     39      0.3412          0.6804E+06
   7402      1     94     40      0.3483          0.6804E+06
   7403      1     94     41      0.3568          0.6804E+06
   7404      1     94     42      0.3610          0.6804E+06
   7405      1     94     43      0.3617          0.6804E+06
   7406      1     94     44      0.3616          0.6804E+06
   7407      1     94     45      0.3620          0.6804E+06
   7408      1     94     46      0.3637          0.6804E+06
   7409      1     94     47      0.3677          0.6804E+06
   7410      1     94     48      0.3726          0.6804E+06
   7411      1     94     49      0.3801          0.6804E+06
   7412      1     94     50      0.3870          0.6804E+06
   7413      1     94     51      0.3869          0.6804E+06
   7414      1     94     52      0.3765          0.6804E+06
   7415      1     94     53      0.3684          0.6804E+06
   7416      1     94     54      0.3607          0.6804E+06
   7417      1     94     55      0.3541          0.6804E+06
   7418      1     94     56      0.3492          0.6804E+06
   7419      1     94     57      0.3444          0.6804E+06
   7420      1     94     58      0.3404          0.6804E+06
   7421      1     94     59      0.3378          0.6804E+06
   7422      1     94     60      0.3359          0.6804E+06
   7423      1     94     61      0.3342          0.6804E+06
   7424      1     94     62      0.3328          0.6804E+06
   7425      1     94     63      0.3326          0.6804E+06
   7426      1     94     64      0.3331          0.6804E+06
   7427      1     94     65      0.3337          0.6804E+06
   7428      1     94     66      0.3346          0.6804E+06
   7429      1     94     67      0.3354          0.6804E+06
   7430      1     94     68      0.3359          0.6804E+06
   7431      1     94     69      0.3361          0.6804E+06
   7432      1     94     70      0.3363          0.6804E+06
   7433      1     94     71      0.3361          0.6804E+06
   7434      1     94     72      0.3357          0.6804E+06
   7435      1     94     73      0.3351          0.6804E+06
   7436      1     94     74      0.3345          0.6804E+06
   7437      1     94     75      0.3338          0.6804E+06
   7438      1     94     76      0.3330          0.6804E+06
   7439      1     94     77      0.3322          0.6804E+06
   7440      1     94     78      0.3310          0.6804E+06
   7441      1     94     79      0.3297          0.6804E+06
   7442      1     94     80      0.3286          0.6804E+06
   7443      1     94     81      0.3272          0.6804E+06
   7444      1     94     82      0.3258          0.6804E+06
   7445      1     94     83      0.3244          0.6804E+06
   7446      1     94     84      0.3229          0.6804E+06
   7447      1     94     85      0.3217          0.6804E+06
   7448      1     94     86      0.3206          0.6804E+06
   7449      1     94     87      0.3210          0.6804E+06
   7450      1     94     88      0.3223          0.6804E+06
   7451      1     94     89      0.3244          0.6804E+06
   7452      1     94     90      0.3268          0.6804E+06
   7453      1     94     91      0.3289          0.6804E+06
   7454      1     94     92      0.3314          0.6804E+06
   7455      1     94     93      0.3335          0.6804E+06
   7456      1     94     94      0.3359          0.6804E+06
   7457      1     94     95      0.3382          0.6804E+06
   7458      1     95      1      0.9422          0.6804E+06
   7459      1     95      2      0.9414          0.6804E+06
   7460      1     95      3      0.9400          0.6804E+06
   7461      1     95      4      0.9371          0.6804E+06
   7462      1     95      5      0.9325          0.6804E+06
   7463      1     95      6      0.9274          0.6804E+06
   7464      1     95      7      0.9208          0.6804E+06
   7465      1     95      8      0.9132          0.6804E+06
   7466      1     95      9      0.9059          0.6804E+06
   7467      1     95     10      0.8967          0.6804E+06
   7468      1     95     11      0.8878          0.6804E+06
   7469      1     95     12      0.8768          0.6804E+06
   7470      1     95     13      0.8652          0.6804E+06
   7471      1     95     14      0.8549          0.6804E+06
   7472      1     95     15      0.8430          0.6804E+06
   7473      1     95     16      0.8330          0.6804E+06
   7474      1     95     17      0.8218          0.6804E+06
   7475      1     95     18      0.8105          0.6804E+06
   7476      1     95     19      0.8000          0.6804E+06
   7477      1     95     20      0.7858          0.6804E+06
   7478      1     95     21      0.7657          0.6804E+06
   7479      1     95     22      0.7398          0.6804E+06
   7480      1     95     23      0.6957          0.6804E+06
   7481      1     95     24      0.6515          0.6804E+06
   7482      1     95     25      0.5984          0.6804E+06
   7483      1     95     26      0.5435          0.6804E+06
   7484      1     95     27      0.4956          0.6804E+06
   7485      1     95     28      0.4432          0.6804E+06
   7486      1     95     29      0.4017          0.6804E+06
   7487      1     95     30      0.3778          0.6804E+06
   7488      1     95     31      0.3667          0.6804E+06
   7489      1     95     32      0.3613          0.6804E+06
   7490      1     95     33      0.3575          0.6804E+06
   7491      1     95     34      0.3560          0.6804E+06
   7492      1     95     35      0.3560          0.6804E+06
   7493      1     95     36      0.3573          0.6804E+06
   7494      1     95     37      0.3605          0.6804E+06
   7495      1     95     38      0.3650          0.6804E+06
   7496      1     95     39      0.3712          0.6804E+06
   7497      1     95     40      0.3777          0.6804E+06
   7498      1     95     41      0.3847          0.6804E+06
   7499      1     95     42      0.3880          0.6804E+06
   7500      1     95     43      0.3881          0.6804E+06
   7501      1     95     44      0.3875          0.6804E+06
   7502      1     95     45      0.3875          0.6804E+06
   7503      1     95     46      0.3888          0.6804E+06
   7504      1     95     47      0.3922          0.6804E+06
   7505      1     95     48      0.3963          0.6804E+06
   7506      1     95     49      0.4018          0.6804E+06
   7507      1     95     50      0.4055          0.6804E+06
   7508      1     95     51      0.4043          0.6804E+06
   7509      1     95     52      0.3957          0.6804E+06
   7510      1     95     53      0.3872          0.6804E+06
   7511      1     95     54      0.3780          0.6804E+06
   7512      1     95     55      0.3691          0.6804E+06
   7513      1     95     56      0.3620          0.6804E+06
   7514      1     95     57      0.3559          0.6804E+06
   7515      1     95     58      0.3505          0.6804E+06
   7516      1     95     59      0.3467          0.6804E+06
   7517      1     95     60      0.3433          0.6804E+06
   7518      1     95     61      0.3408          0.6804E+06
   7519      1     95     62      0.3386          0.6804E+06
   7520      1     95     63      0.3376          0.6804E+06
   7521      1     95     64      0.3375          0.6804E+06
   7522      1     95     65      0.3375          0.6804E+06
   7523      1     95     66      0.3378          0.6804E+06
   7524      1     95     67      0.3380          0.6804E+06
   7525      1     95     68      0.3383          0.6804E+06
   7526      1     95     69      0.3384          0.6804E+06
   7527      1     95     70      0.3385          0.6804E+06
   7528      1     95     71      0.3384          0.6804E+06
   7529      1     95     72      0.3382          0.6804E+06
   7530      1     95     73      0.3380          0.6804E+06
   7531      1     95     74      0.3378          0.6804E+06
   7532      1     95     75      0.3375          0.6804E+06
   7533      1     95     76      0.3367          0.6804E+06
   7534      1     95     77      0.3355          0.6804E+06
   7535      1     95     78      0.3336          0.6804E+06
   7536      1     95     79      0.3317          0.6804E+06
   7537      1     95     80      0.3300          0.6804E+06
   7538      1     95     81      0.3280          0.6804E+06
   7539      1     95     82      0.3262          0.6804E+06
   7540      1     95     83      0.3246          0.6804E+06
   7541      1     95     84      0.3228          0.6804E+06
   7542      1     95     85      0.3213          0.6804E+06
   7543      1     95     86      0.3198          0.6804E+06
   7544      1     95     87      0.3202          0.6804E+06
   7545      1     95     88      0.3217          0.6804E+06
   7546      1     95     89      0.3240          0.6804E+06
   7547      1     95     90      0.3264          0.6804E+06
   7548      1     95     91      0.3286          0.6804E+06
   7549      1     95     92      0.3311          0.6804E+06
   7550      1     95     93      0.3333          0.6804E+06
   7551      1     95     94      0.3357          0.6804E+06
   7552      1     95     95      0.3381          0.6804E+06
   7553      1     96      1      0.9344          0.6804E+06
   7554      1     96      2      0.9335          0.6804E+06
   7555      1     96      3      0.9320          0.6804E+06
   7556      1     96      4      0.9291          0.6804E+06
   7557      1     96      5      0.9246          0.6804E+06
   7558      1     96      6      0.9197          0.6804E+06
   7559      1     96      7      0.9134          0.6804E+06
   7560      1     96      8      0.9060          0.6804E+06
   7561      1     96      9      0.8989          0.6804E+06
   7562      1     96     10      0.8900          0.6804E+06
   7563      1     96     11      0.8815          0.6804E+06
   7564      1     96     12      0.8710          0.6804E+06
   7565      1     96     13      0.8602          0.6804E+06
   7566      1     96     14      0.8505          0.6804E+06
   7567      1     96     15      0.8396          0.6804E+06
   7568      1     96     16      0.8308          0.6804E+06
   7569      1     96     17      0.8220          0.6804E+06
   7570      1     96     18      0.8142          0.6804E+06
   7571      1     96     19      0.8072          0.6804E+06
   7572      1     96     20      0.7978          0.6804E+06
   7573      1     96     21      0.7834          0.6804E+06
   7574      1     96     22      0.7614          0.6804E+06
   7575      1     96     23      0.7161          0.6804E+06
   7576      1     96     24      0.6718          0.6804E+06
   7577      1     96     25      0.6194          0.6804E+06
   7578      1     96     26      0.5651          0.6804E+06
   7579      1     96     27      0.5171          0.6804E+06
   7580      1     96     28      0.4630          0.6804E+06
   7581      1     96     29      0.4201          0.6804E+06
   7582      1     96     30      0.3973          0.6804E+06
   7583      1     96     31      0.3915          0.6804E+06
   7584      1     96     32      0.3882          0.6804E+06
   7585      1     96     33      0.3854          0.6804E+06
   7586      1     96     34      0.3842          0.6804E+06
   7587      1     96     35      0.3842          0.6804E+06
   7588      1     96     36      0.3854          0.6804E+06
   7589      1     96     37      0.3884          0.6804E+06
   7590      1     96     38      0.3926          0.6804E+06
   7591      1     96     39      0.3985          0.6804E+06
   7592      1     96     40      0.4046          0.6804E+06
   7593      1     96     41      0.4106          0.6804E+06
   7594      1     96     42      0.4127          0.6804E+06
   7595      1     96     43      0.4116          0.6804E+06
   7596      1     96     44      0.4096          0.6804E+06
   7597      1     96     45      0.4089          0.6804E+06
   7598      1     96     46      0.4094          0.6804E+06
   7599      1     96     47      0.4117          0.6804E+06
   7600      1     96     48      0.4147          0.6804E+06
   7601      1     96     49      0.4182          0.6804E+06
   7602      1     96     50      0.4196          0.6804E+06
   7603      1     96     51      0.4174          0.6804E+06
   7604      1     96     52      0.4093          0.6804E+06
   7605      1     96     53      0.4006          0.6804E+06
   7606      1     96     54      0.3904          0.6804E+06
   7607      1     96     55      0.3803          0.6804E+06
   7608      1     96     56      0.3727          0.6804E+06
   7609      1     96     57      0.3653          0.6804E+06
   7610      1     96     58      0.3591          0.6804E+06
   7611      1     96     59      0.3544          0.6804E+06
   7612      1     96     60      0.3499          0.6804E+06
   7613      1     96     61      0.3467          0.6804E+06
   7614      1     96     62      0.3438          0.6804E+06
   7615      1     96     63      0.3420          0.6804E+06
   7616      1     96     64      0.3413          0.6804E+06
   7617      1     96     65      0.3410          0.6804E+06
   7618      1     96     66      0.3407          0.6804E+06
   7619      1     96     67      0.3405          0.6804E+06
   7620      1     96     68      0.3405          0.6804E+06
   7621      1     96     69      0.3405          0.6804E+06
   7622      1     96     70      0.3405          0.6804E+06
   7623      1     96     71      0.3404          0.6804E+06
   7624      1     96     72      0.3404          0.6804E+06
   7625      1     96     73      0.3404          0.6804E+06
   7626      1     96     74      0.3405          0.6804E+06
   7627      1     96     75      0.3406          0.6804E+06
   7628      1     96     76      0.3399          0.6804E+06
   7629      1     96     77      0.3382          0.6804E+06
   7630      1     96     78      0.3357          0.6804E+06
   7631      1     96     79      0.3333          0.6804E+06
   7632      1     96     80      0.3312          0.6804E+06
   7633      1     96     81      0.3290          0.6804E+06
   7634      1     96     82      0.3268          0.6804E+06
   7635      1     96     83      0.3250          0.6804E+06
   7636      1     96     84      0.3232          0.6804E+06
   7637      1     96     85      0.3217          0.6804E+06
   7638      1     96     86      0.3206          0.6804E+06
   7639      1     96     87      0.3209          0.6804E+06
   7640      1     96     88      0.3220          0.6804E+06
   7641      1     96     89      0.3241          0.6804E+06
   7642      1     96     90      0.3264          0.6804E+06
   7643      1     96     91      0.3285          0.6804E+06
   7644      1     96     92      0.3309          0.6804E+06
   7645      1     96     93      0.3331          0.6804E+06
   7646      1     96     94      0.3355          0.6804E+06
   7647      1     96     95      0.3377          0.6804E+06
   7648      1     96     96      0.3395          0.6804E+06
   7649      1     97      1      0.9274          0.6804E+06
   7650      1     97      2      0.9264          0.6804E+06
   7651      1     97      3      0.9247          0.6804E+06
   7652      1     97      4      0.9217          0.6804E+06
   7653      1     97      5      0.9173          0.6804E+06
   7654      1     97      6      0.9125          0.6804E+06
   7655      1     97      7      0.9063          0.6804E+06
   7656      1     97      8      0.8991          0.6804E+06
   7657      1     97      9      0.8922          0.6804E+06
   7658      1     97     10      0.8835          0.6804E+06
   7659      1     97     11      0.8753          0.6804E+06
   7660      1     97     12      0.8652          0.6804E+06
   7661      1     97     13      0.8549          0.6804E+06
   7662      1     97     14      0.8456          0.6804E+06
   7663      1     97     15      0.8348          0.6804E+06
   7664      1     97     16      0.8267          0.6804E+06
   7665      1     97     17      0.8195          0.6804E+06
   7666      1     97     18      0.8145          0.6804E+06
   7667      1     97     19      0.8098          0.6804E+06
   7668      1     97     20      0.8023          0.6804E+06
   7669      1     97     21      0.7888          0.6804E+06
   7670      1     97     22      0.7680          0.6804E+06
   7671      1     97     23      0.7275          0.6804E+06
   7672      1     97     24      0.6867          0.6804E+06
   7673      1     97     25      0.6374          0.6804E+06
   7674      1     97     26      0.5863          0.6804E+06
   7675      1     97     27      0.5413          0.6804E+06
   7676      1     97     28      0.4923          0.6804E+06
   7677      1     97     29      0.4532          0.6804E+06
   7678      1     97     30      0.4309          0.6804E+06
   7679      1     97     31      0.4213          0.6804E+06
   7680      1     97     32      0.4162          0.6804E+06
   7681      1     97     33      0.4119          0.6804E+06
   7682      1     97     34      0.4096          0.6804E+06
   7683      1     97     35      0.4088          0.6804E+06
   7684      1     97     36      0.4090          0.6804E+06
   7685      1     97     37      0.4113          0.6804E+06
   7686      1     97     38      0.4148          0.6804E+06
   7687      1     97     39      0.4200          0.6804E+06
   7688      1     97     40      0.4256          0.6804E+06
   7689      1     97     41      0.4308          0.6804E+06
   7690      1     97     42      0.4318          0.6804E+06
   7691      1     97     43      0.4293          0.6804E+06
   7692      1     97     44      0.4260          0.6804E+06
   7693      1     97     45      0.4243          0.6804E+06
   7694      1     97     46      0.4239          0.6804E+06
   7695      1     97     47      0.4250          0.6804E+06
   7696      1     97     48      0.4268          0.6804E+06
   7697      1     97     49      0.4292          0.6804E+06
   7698      1     97     50      0.4297          0.6804E+06
   7699      1     97     51      0.4270          0.6804E+06
   7700      1     97     52      0.4181          0.6804E+06
   7701      1     97     53      0.4087          0.6804E+06
   7702      1     97     54      0.3979          0.6804E+06
   7703      1     97     55      0.3877          0.6804E+06
   7704      1     97     56      0.3799          0.6804E+06
   7705      1     97     57      0.3719          0.6804E+06
   7706      1     97     58      0.3652          0.6804E+06
   7707      1     97     59      0.3601          0.6804E+06
   7708      1     97     60      0.3551          0.6804E+06
   7709      1     97     61      0.3513          0.6804E+06
   7710      1     97     62      0.3479          0.6804E+06
   7711      1     97     63      0.3456          0.6804E+06
   7712      1     97     64      0.3444          0.6804E+06
   7713      1     97     65      0.3436          0.6804E+06
   7714      1     97     66      0.3429          0.6804E+06
   7715      1     97     67      0.3424          0.6804E+06
   7716      1     97     68      0.3422          0.6804E+06
   7717      1     97     69      0.3421          0.6804E+06
   7718      1     97     70      0.3420          0.6804E+06
   7719      1     97     71      0.3419          0.6804E+06
   7720      1     97     72      0.3419          0.6804E+06
   7721      1     97     73      0.3420          0.6804E+06
   7722      1     97     74      0.3421          0.6804E+06
   7723      1     97     75      0.3423          0.6804E+06
   7724      1     97     76      0.3417          0.6804E+06
   7725      1     97     77      0.3397          0.6804E+06
   7726      1     97     78      0.3370          0.6804E+06
   7727      1     97     79      0.3343          0.6804E+06
   7728      1     97     80      0.3321          0.6804E+06
   7729      1     97     81      0.3297          0.6804E+06
   7730      1     97     82      0.3274          0.6804E+06
   7731      1     97     83      0.3256          0.6804E+06
   7732      1     97     84      0.3237          0.6804E+06
   7733      1     97     85      0.3224          0.6804E+06
   7734      1     97     86      0.3216          0.6804E+06
   7735      1     97     87      0.3217          0.6804E+06
   7736      1     97     88      0.3226          0.6804E+06
   7737      1     97     89      0.3243          0.6804E+06
   7738      1     97     90      0.3264          0.6804E+06
   7739      1     97     91      0.3284          0.6804E+06
   7740      1     97     92      0.3308          0.6804E+06
   7741      1     97     93      0.3329          0.6804E+06
   7742      1     97     94      0.3352          0.6804E+06
   7743      1     97     95      0.3373          0.6804E+06
   7744      1     97     96      0.3390          0.6804E+06
   7745      1     97     97      0.3406          0.6804E+06
   7746      1     98      1      0.9196          0.6804E+06
   7747      1     98      2      0.9182          0.6804E+06
   7748      1     98      3      0.9162          0.6804E+06
   7749      1     98      4      0.9130          0.6804E+06
   7750      1     98      5      0.9086          0.6804E+06
   7751      1     98      6      0.9039          0.6804E+06
   7752      1     98      7      0.8978          0.6804E+06
   7753      1     98      8      0.8907          0.6804E+06
   7754      1     98      9      0.8839          0.6804E+06
   7755      1     98     10      0.8756          0.6804E+06
   7756      1     98     11      0.8677          0.6804E+06
   7757      1     98     12      0.8580          0.6804E+06
   7758      1     98     13      0.8481          0.6804E+06
   7759      1     98     14      0.8390          0.6804E+06
   7760      1     98     15      0.8284          0.6804E+06
   7761      1     98     16      0.8207          0.6804E+06
   7762      1     98     17      0.8150          0.6804E+06
   7763      1     98     18      0.8129          0.6804E+06
   7764      1     98     19      0.8101          0.6804E+06
   7765      1     98     20      0.8034          0.6804E+06
   7766      1     98     21      0.7901          0.6804E+06
   7767      1     98     22      0.7705          0.6804E+06
   7768      1     98     23      0.7371          0.6804E+06
   7769      1     98     24      0.7017          0.6804E+06
   7770      1     98     25      0.6577          0.6804E+06
   7771      1     98     26      0.6117          0.6804E+06
   7772      1     98     27      0.5718          0.6804E+06
   7773      1     98     28      0.5301          0.6804E+06
   7774      1     98     29      0.4959          0.6804E+06
   7775      1     98     30      0.4741          0.6804E+06
   7776      1     98     31      0.4599          0.6804E+06
   7777      1     98     32      0.4513          0.6804E+06
   7778      1     98     33      0.4436          0.6804E+06
   7779      1     98     34      0.4386          0.6804E+06
   7780      1     98     35      0.4360          0.6804E+06
   7781      1     98     36      0.4344          0.6804E+06
   7782      1     98     37      0.4350          0.6804E+06
   7783      1     98     38      0.4371          0.6804E+06
   7784      1     98     39      0.4408          0.6804E+06
   7785      1     98     40      0.4448          0.6804E+06
   7786      1     98     41      0.4481          0.6804E+06
   7787      1     98     42      0.4480          0.6804E+06
   7788      1     98     43      0.4451          0.6804E+06
   7789      1     98     44      0.4410          0.6804E+06
   7790      1     98     45      0.4379          0.6804E+06
   7791      1     98     46      0.4363          0.6804E+06
   7792      1     98     47      0.4358          0.6804E+06
   7793      1     98     48      0.4363          0.6804E+06
   7794      1     98     49      0.4374          0.6804E+06
   7795      1     98     50      0.4372          0.6804E+06
   7796      1     98     51      0.4339          0.6804E+06
   7797      1     98     52      0.4242          0.6804E+06
   7798      1     98     53      0.4144          0.6804E+06
   7799      1     98     54      0.4036          0.6804E+06
   7800      1     98     55      0.3936          0.6804E+06
   7801      1     98     56      0.3858          0.6804E+06
   7802      1     98     57      0.3776          0.6804E+06
   7803      1     98     58      0.3704          0.6804E+06
   7804      1     98     59      0.3650          0.6804E+06
   7805      1     98     60      0.3596          0.6804E+06
   7806      1     98     61      0.3556          0.6804E+06
   7807      1     98     62      0.3519          0.6804E+06
   7808      1     98     63      0.3491          0.6804E+06
   7809      1     98     64      0.3474          0.6804E+06
   7810      1     98     65      0.3460          0.6804E+06
   7811      1     98     66      0.3449          0.6804E+06
   7812      1     98     67      0.3442          0.6804E+06
   7813      1     98     68      0.3438          0.6804E+06
   7814      1     98     69      0.3437          0.6804E+06
   7815      1     98     70      0.3435          0.6804E+06
   7816      1     98     71      0.3432          0.6804E+06
   7817      1     98     72      0.3431          0.6804E+06
   7818      1     98     73      0.3431          0.6804E+06
   7819      1     98     74      0.3430          0.6804E+06
   7820      1     98     75      0.3428          0.6804E+06
   7821      1     98     76      0.3418          0.6804E+06
   7822      1     98     77      0.3402          0.6804E+06
   7823      1     98     78      0.3377          0.6804E+06
   7824      1     98     79      0.3351          0.6804E+06
   7825      1     98     80      0.3328          0.6804E+06
   7826      1     98     81      0.3303          0.6804E+06
   7827      1     98     82      0.3280          0.6804E+06
   7828      1     98     83      0.3262          0.6804E+06
   7829      1     98     84      0.3244          0.6804E+06
   7830      1     98     85      0.3231          0.6804E+06
   7831      1     98     86      0.3224          0.6804E+06
   7832      1     98     87      0.3225          0.6804E+06
   7833      1     98     88      0.3232          0.6804E+06
   7834      1     98     89      0.3247          0.6804E+06
   7835      1     98     90      0.3266          0.6804E+06
   7836      1     98     91      0.3284          0.6804E+06
   7837      1     98     92      0.3307          0.6804E+06
   7838      1     98     93      0.3327          0.6804E+06
   7839      1     98     94      0.3349          0.6804E+06
   7840      1     98     95      0.3369          0.6804E+06
   7841      1     98     96      0.3385          0.6804E+06
   7842      1     98     97      0.3400          0.6804E+06
   7843      1     98     98      0.3410          0.6804E+06
   7844      1     99      1      0.9128          0.6804E+06
   7845      1     99      2      0.9111          0.6804E+06
   7846      1     99      3      0.9088          0.6804E+06
   7847      1     99      4      0.9054          0.6804E+06
   7848      1     99      5      0.9008          0.6804E+06
   7849      1     99      6      0.8960          0.6804E+06
   7850      1     99      7      0.8900          0.6804E+06
   7851      1     99      8      0.8831          0.6804E+06
   7852      1     99      9      0.8764          0.6804E+06
   7853      1     99     10      0.8683          0.6804E+06
   7854      1     99     11      0.8607          0.6804E+06
   7855      1     99     12      0.8514          0.6804E+06
   7856      1     99     13      0.8419          0.6804E+06
   7857      1     99     14      0.8333          0.6804E+06
   7858      1     99     15      0.8235          0.6804E+06
   7859      1     99     16      0.8166          0.6804E+06
   7860      1     99     17      0.8120          0.6804E+06
   7861      1     99     18      0.8112          0.6804E+06
   7862      1     99     19      0.8095          0.6804E+06
   7863      1     99     20      0.8038          0.6804E+06
   7864      1     99     21      0.7919          0.6804E+06
   7865      1     99     22      0.7744          0.6804E+06
   7866      1     99     23      0.7453          0.6804E+06
   7867      1     99     24      0.7141          0.6804E+06
   7868      1     99     25      0.6750          0.6804E+06
   7869      1     99     26      0.6339          0.6804E+06
   7870      1     99     27      0.5987          0.6804E+06
   7871      1     99     28      0.5627          0.6804E+06
   7872      1     99     29      0.5323          0.6804E+06
   7873      1     99     30      0.5114          0.6804E+06
   7874      1     99     31      0.4943          0.6804E+06
   7875      1     99     32      0.4823          0.6804E+06
   7876      1     99     33      0.4711          0.6804E+06
   7877      1     99     34      0.4631          0.6804E+06
   7878      1     99     35      0.4583          0.6804E+06
   7879      1     99     36      0.4547          0.6804E+06
   7880      1     99     37      0.4535          0.6804E+06
   7881      1     99     38      0.4540          0.6804E+06
   7882      1     99     39      0.4559          0.6804E+06
   7883      1     99     40      0.4581          0.6804E+06
   7884      1     99     41      0.4595          0.6804E+06
   7885      1     99     42      0.4584          0.6804E+06
   7886      1     99     43      0.4552          0.6804E+06
   7887      1     99     44      0.4509          0.6804E+06
   7888      1     99     45      0.4466          0.6804E+06
   7889      1     99     46      0.4436          0.6804E+06
   7890      1     99     47      0.4416          0.6804E+06
   7891      1     99     48      0.4407          0.6804E+06
   7892      1     99     49      0.4399          0.6804E+06
   7893      1     99     50      0.4379          0.6804E+06
   7894      1     99     51      0.4338          0.6804E+06
   7895      1     99     52      0.4252          0.6804E+06
   7896      1     99     53      0.4165          0.6804E+06
   7897      1     99     54      0.4063          0.6804E+06
   7898      1     99     55      0.3966          0.6804E+06
   7899      1     99     56      0.3890          0.6804E+06
   7900      1     99     57      0.3807          0.6804E+06
   7901      1     99     58      0.3735          0.6804E+06
   7902      1     99     59      0.3680          0.6804E+06
   7903      1     99     60      0.3625          0.6804E+06
   7904      1     99     61      0.3583          0.6804E+06
   7905      1     99     62      0.3545          0.6804E+06
   7906      1     99     63      0.3514          0.6804E+06
   7907      1     99     64      0.3494          0.6804E+06
   7908      1     99     65      0.3476          0.6804E+06
   7909      1     99     66      0.3463          0.6804E+06
   7910      1     99     67      0.3455          0.6804E+06
   7911      1     99     68      0.3449          0.6804E+06
   7912      1     99     69      0.3446          0.6804E+06
   7913      1     99     70      0.3443          0.6804E+06
   7914      1     99     71      0.3441          0.6804E+06
   7915      1     99     72      0.3439          0.6804E+06
   7916      1     99     73      0.3437          0.6804E+06
   7917      1     99     74      0.3434          0.6804E+06
   7918      1     99     75      0.3428          0.6804E+06
   7919      1     99     76      0.3417          0.6804E+06
   7920      1     99     77      0.3402          0.6804E+06
   7921      1     99     78      0.3379          0.6804E+06
   7922      1     99     79      0.3354          0.6804E+06
   7923      1     99     80      0.3332          0.6804E+06
   7924      1     99     81      0.3307          0.6804E+06
   7925      1     99     82      0.3284          0.6804E+06
   7926      1     99     83      0.3266          0.6804E+06
   7927      1     99     84      0.3248          0.6804E+06
   7928      1     99     85      0.3236          0.6804E+06
   7929      1     99     86      0.3229          0.6804E+06
   7930      1     99     87      0.3230          0.6804E+06
   7931      1     99     88      0.3236          0.6804E+06
   7932      1     99     89      0.3249          0.6804E+06
   7933      1     99     90      0.3267          0.6804E+06
   7934      1     99     91      0.3285          0.6804E+06
   7935      1     99     92      0.3307          0.6804E+06
   7936      1     99     93      0.3326          0.6804E+06
   7937      1     99     94      0.3347          0.6804E+06
   7938      1     99     95      0.3366          0.6804E+06
   7939      1     99     96      0.3381          0.6804E+06
   7940      1     99     97      0.3395          0.6804E+06
   7941      1     99     98      0.3405          0.6804E+06
   7942      1     99     99      0.3413          0.6804E+06
   7943      1    100      1      0.9051          0.6804E+06
   7944      1    100      2      0.9029          0.6804E+06
   7945      1    100      3      0.9002          0.6804E+06
   7946      1    100      4      0.8965          0.6804E+06
   7947      1    100      5      0.8917          0.6804E+06
   7948      1    100      6      0.8869          0.6804E+06
   7949      1    100      7      0.8809          0.6804E+06
   7950      1    100      8      0.8741          0.6804E+06
   7951      1    100      9      0.8676          0.6804E+06
   7952      1    100     10      0.8597          0.6804E+06
   7953      1    100     11      0.8523          0.6804E+06
   7954      1    100     12      0.8435          0.6804E+06
   7955      1    100     13      0.8347          0.6804E+06
   7956      1    100     14      0.8270          0.6804E+06
   7957      1    100     15      0.8188          0.6804E+06
   7958      1    100     16      0.8135          0.6804E+06
   7959      1    100     17      0.8102          0.6804E+06
   7960      1    100     18      0.8098          0.6804E+06
   7961      1    100     19      0.8091          0.6804E+06
   7962      1    100     20      0.8053          0.6804E+06
   7963      1    100     21      0.7961          0.6804E+06
   7964      1    100     22      0.7815          0.6804E+06
   7965      1    100     23      0.7559          0.6804E+06
   7966      1    100     24      0.7282          0.6804E+06
   7967      1    100     25      0.6935          0.6804E+06
   7968      1    100     26      0.6575          0.6804E+06
   7969      1    100     27      0.6270          0.6804E+06
   7970      1    100     28      0.5962          0.6804E+06
   7971      1    100     29      0.5696          0.6804E+06
   7972      1    100     30      0.5503          0.6804E+06
   7973      1    100     31      0.5315          0.6804E+06
   7974      1    100     32      0.5162          0.6804E+06
   7975      1    100     33      0.5008          0.6804E+06
   7976      1    100     34      0.4891          0.6804E+06
   7977      1    100     35      0.4816          0.6804E+06
   7978      1    100     36      0.4754          0.6804E+06
   7979      1    100     37      0.4719          0.6804E+06
   7980      1    100     38      0.4705          0.6804E+06
   7981      1    100     39      0.4703          0.6804E+06
   7982      1    100     40      0.4706          0.6804E+06
   7983      1    100     41      0.4703          0.6804E+06
   7984      1    100     42      0.4678          0.6804E+06
   7985      1    100     43      0.4639          0.6804E+06
   7986      1    100     44      0.4587          0.6804E+06
   7987      1    100     45      0.4532          0.6804E+06
   7988      1    100     46      0.4488          0.6804E+06
   7989      1    100     47      0.4447          0.6804E+06
   7990      1    100     48      0.4420          0.6804E+06
   7991      1    100     49      0.4390          0.6804E+06
   7992      1    100     50      0.4351          0.6804E+06
   7993      1    100     51      0.4303          0.6804E+06
   7994      1    100     52      0.4228          0.6804E+06
   7995      1    100     53      0.4154          0.6804E+06
   7996      1    100     54      0.4066          0.6804E+06
   7997      1    100     55      0.3979          0.6804E+06
   7998      1    100     56      0.3905          0.6804E+06
   7999      1    100     57      0.3826          0.6804E+06
   8000      1    100     58      0.3756          0.6804E+06
   8001      1    100     59      0.3701          0.6804E+06
   8002      1    100     60      0.3645          0.6804E+06
   8003      1    100     61      0.3604          0.6804E+06
   8004      1    100     62      0.3564          0.6804E+06
   8005      1    100     63      0.3531          0.6804E+06
   8006      1    100     64      0.3509          0.6804E+06
   8007      1    100     65      0.3489          0.6804E+06
   8008      1    100     66      0.3474          0.6804E+06
   8009      1    100     67      0.3465          0.6804E+06
   8010      1    100     68      0.3457          0.6804E+06
   8011      1    100     69      0.3452          0.6804E+06
   8012      1    100     70      0.3449          0.6804E+06
   8013      1    100     71      0.3446          0.6804E+06
   8014      1    100     72      0.3444          0.6804E+06
   8015      1    100     73      0.3440          0.6804E+06
   8016      1    100     74      0.3435          0.6804E+06
   8017      1    100     75      0.3428          0.6804E+06
   8018      1    100     76      0.3416          0.6804E+06
   8019      1    100     77      0.3401          0.6804E+06
   8020      1    100     78      0.3380          0.6804E+06
   8021      1    100     79      0.3356          0.6804E+06
   8022      1    100     80      0.3335          0.6804E+06
   8023      1    100     81      0.3310          0.6804E+06
   8024      1    100     82      0.3287          0.6804E+06
   8025      1    100     83      0.3268          0.6804E+06
   8026      1    100     84      0.3251          0.6804E+06
   8027      1    100     85      0.3239          0.6804E+06
   8028      1    100     86      0.3232          0.6804E+06
   8029      1    100     87      0.3233          0.6804E+06
   8030      1    100     88      0.3238          0.6804E+06
   8031      1    100     89      0.3251          0.6804E+06
   8032      1    100     90      0.3268          0.6804E+06
   8033      1    100     91      0.3286          0.6804E+06
   8034      1    100     92      0.3307          0.6804E+06
   8035      1    100     93      0.3325          0.6804E+06
   8036      1    100     94      0.3346          0.6804E+06
   8037      1    100     95      0.3365          0.6804E+06
   8038      1    100     96      0.3379          0.6804E+06
   8039      1    100     97      0.3392          0.6804E+06
   8040      1    100     98      0.3400          0.6804E+06
   8041      1    100     99      0.3406          0.6804E+06
   8042      1    100    100      0.3410          0.6804E+06

   8042 GHB CELLS



                           RECHARGE
 READING ON UNIT   19 WITH FORMAT: (100E15.6)          
 
 SOLVING FOR HEAD 

 NO OUTPUT CONTROL FOR STRESS PERIOD    1   TIME STEP    1
 SOLVING FOR ZETA FOR LAYER     1 ZONE     2
 
 SOLVING FOR HEAD 

 NO OUTPUT CONTROL FOR STRESS PERIOD    1   TIME STEP    2
 SOLVING FOR ZETA FOR LAYER     1 ZONE     2
 
 SOLVING FOR HEAD 

 NO OUTPUT CONTROL FOR STRESS PERIOD    1   TIME STEP    3
 SOLVING FOR ZETA FOR LAYER     1 ZONE     2
 SOLVING FOR ZETA FOR LAYER     2 ZONE     2
 
 SOLVING FOR HEAD 

 NO OUTPUT CONTROL FOR STRESS PERIOD    1   TIME STEP    4
 SOLVING FOR ZETA FOR LAYER     1 ZONE     2
 SOLVING FOR ZETA FOR LAYER     2 ZONE     2
 SOLVING FOR ZETA FOR LAYER     3 ZONE     2
 
 SOLVING FOR HEAD 

 NO OUTPUT CONTROL FOR STRESS PERIOD    1   TIME STEP    5
 SOLVING FOR ZETA FOR LAYER     1 ZONE     2
 SOLVING FOR ZETA FOR LAYER     2 ZONE     2
 SOLVING FOR ZETA FOR LAYER     3 ZONE     2
 
 SOLVING FOR HEAD 

 NO OUTPUT CONTROL FOR STRESS PERIOD    1   TIME STEP    6
 SOLVING FOR ZETA FOR LAYER     1 ZONE     2
 SOLVING FOR ZETA FOR LAYER     2 ZONE     2
 SOLVING FOR ZETA FOR LAYER     3 ZONE     2
 
 SOLVING FOR HEAD 

 NO OUTPUT CONTROL FOR STRESS PERIOD    1   TIME STEP    7
 SOLVING FOR ZETA FOR LAYER     1 ZONE     2
 SOLVING FOR ZETA FOR LAYER     2 ZONE     2
 SOLVING FOR ZETA FOR LAYER     3 ZONE     2
 
 SOLVING FOR HEAD 

 NO OUTPUT CONTROL FOR STRESS PERIOD    1   TIME STEP    8
 SOLVING FOR ZETA FOR LAYER     1 ZONE     2
 SOLVING FOR ZETA FOR LAYER     2 ZONE     2
 SOLVING FOR ZETA FOR LAYER     3 ZONE     2
 
 SOLVING FOR HEAD 

 NO OUTPUT CONTROL FOR STRESS PERIOD    1   TIME STEP    9
 SOLVING FOR ZETA FOR LAYER     1 ZONE     2
 SOLVING FOR ZETA FOR LAYER     2 ZONE     2
 SOLVING FOR ZETA FOR LAYER     3 ZONE     2
 
 SOLVING FOR HEAD 

 NO OUTPUT CONTROL FOR STRESS PERIOD    1   TIME STEP   10
 SOLVING FOR ZETA FOR LAYER     1 ZONE     2
 SOLVING FOR ZETA FOR LAYER     2 ZONE     2
 SOLVING FOR ZETA FOR LAYER     3 ZONE     2
 
 SOLVING FOR HEAD 

 NO OUTPUT CONTROL FOR STRESS PERIOD    1   TIME STEP   11
 SOLVING FOR ZETA FOR LAYER     1 ZONE     2
 SOLVING FOR ZETA FOR LAYER     2 ZONE     2
 SOLVING FOR ZETA FOR LAYER     3 ZONE     2
 
 SOLVING FOR HEAD 

 NO OUTPUT CONTROL FOR STRESS PERIOD    1   TIME STEP   12
 SOLVING FOR ZETA FOR LAYER     1 ZONE     2
 SOLVING FOR ZETA FOR LAYER     2 ZONE     2
 SOLVING FOR ZETA FOR LAYER     3 ZONE     2
 
 SOLVING FOR HEAD 

 NO OUTPUT CONTROL FOR STRESS PERIOD    1   TIME STEP   13
 SOLVING FOR ZETA FOR LAYER     1 ZONE     2
 SOLVING FOR ZETA FOR LAYER     2 ZONE     2
 SOLVING FOR ZETA FOR LAYER     3 ZONE     2
 
 SOLVING FOR HEAD 

 NO OUTPUT CONTROL FOR STRESS PERIOD    1   TIME STEP   14
 SOLVING FOR ZETA FOR LAYER     1 ZONE     2
 SOLVING FOR ZETA FOR LAYER     2 ZONE     2
 SOLVING FOR ZETA FOR LAYER     3 ZONE     2
 
 SOLVING FOR HEAD 

 NO OUTPUT CONTROL FOR STRESS PERIOD    1   TIME STEP   15
 SOLVING FOR ZETA FOR LAYER     1 ZONE     2
 SOLVING FOR ZETA FOR LAYER     2 ZONE     2
 SOLVING FOR ZETA FOR LAYER     3 ZONE     2
 
 SOLVING FOR HEAD 

 NO OUTPUT CONTROL FOR STRESS PERIOD    1   TIME STEP   16
 SOLVING FOR ZETA FOR LAYER     1 ZONE     2
 SOLVING FOR ZETA FOR LAYER     2 ZONE     2
 SOLVING FOR ZETA FOR LAYER     3 ZONE     2
 
 SOLVING FOR HEAD 

 NO OUTPUT CONTROL FOR STRESS PERIOD    1   TIME STEP   17
 SOLVING FOR ZETA FOR LAYER     1 ZONE     2
 SOLVING FOR ZETA FOR LAYER     2 ZONE     2
 SOLVING FOR ZETA FOR LAYER     3 ZONE     2
 
 SOLVING FOR HEAD 

 NO OUTPUT CONTROL FOR STRESS PERIOD    1   TIME STEP   18
 SOLVING FOR ZETA FOR LAYER     1 ZONE     2
 SOLVING FOR ZETA FOR LAYER     2 ZONE     2
 SOLVING FOR ZETA FOR LAYER     3 ZONE     2
 
 SOLVING FOR HEAD 

 NO OUTPUT CONTROL FOR STRESS PERIOD    1   TIME STEP   19
 SOLVING FOR ZETA FOR LAYER     1 ZONE     2
 SOLVING FOR ZETA FOR LAYER     2 ZONE     2
 SOLVING FOR ZETA FOR LAYER     3 ZONE     2
 
 SOLVING FOR HEAD 

 NO OUTPUT CONTROL FOR STRESS PERIOD    1   TIME STEP   20
 SOLVING FOR ZETA FOR LAYER     1 ZONE     2
 SOLVING FOR ZETA FOR LAYER     2 ZONE     2
 SOLVING FOR ZETA FOR LAYER     3 ZONE     2
 
 SOLVING FOR HEAD 

 NO OUTPUT CONTROL FOR STRESS PERIOD    1   TIME STEP   21
 SOLVING FOR ZETA FOR LAYER     1 ZONE     2
 SOLVING FOR ZETA FOR LAYER     2 ZONE     2
 SOLVING FOR ZETA FOR LAYER     3 ZONE     2
 
 SOLVING FOR HEAD 

 NO OUTPUT CONTROL FOR STRESS PERIOD    1   TIME STEP   22
 SOLVING FOR ZETA FOR LAYER     1 ZONE     2
 SOLVING FOR ZETA FOR LAYER     2 ZONE     2
 SOLVING FOR ZETA FOR LAYER     3 ZONE     2
 
 SOLVING FOR HEAD 

 NO OUTPUT CONTROL FOR STRESS PERIOD    1   TIME STEP   23
 SOLVING FOR ZETA FOR LAYER     1 ZONE     2
 SOLVING FOR ZETA FOR LAYER     2 ZONE     2
 SOLVING FOR ZETA FOR LAYER     3 ZONE     2
 
 SOLVING FOR HEAD 

 NO OUTPUT CONTROL FOR STRESS PERIOD    1   TIME STEP   24
 SOLVING FOR ZETA FOR LAYER     1 ZONE     2
 SOLVING FOR ZETA FOR LAYER     2 ZONE     2
 SOLVING FOR ZETA FOR LAYER     3 ZONE     2
 
 SOLVING FOR HEAD 

 NO OUTPUT CONTROL FOR STRESS PERIOD    1   TIME STEP   25
 SOLVING FOR ZETA FOR LAYER     1 ZONE     2
 SOLVING FOR ZETA FOR LAYER     2 ZONE     2
 SOLVING FOR ZETA FOR LAYER     3 ZONE     2
 
 SOLVING FOR HEAD 

 NO OUTPUT CONTROL FOR STRESS PERIOD    1   TIME STEP   26
 SOLVING FOR ZETA FOR LAYER     1 ZONE     2
 SOLVING FOR ZETA FOR LAYER     2 ZONE     2
 SOLVING FOR ZETA FOR LAYER     3 ZONE     2
 
 SOLVING FOR HEAD 

 NO OUTPUT CONTROL FOR STRESS PERIOD    1   TIME STEP   27
 SOLVING FOR ZETA FOR LAYER     1 ZONE     2
 SOLVING FOR ZETA FOR LAYER     2 ZONE     2
 SOLVING FOR ZETA FOR LAYER     3 ZONE     2
 
 SOLVING FOR HEAD 

 NO OUTPUT CONTROL FOR STRESS PERIOD    1   TIME STEP   28
 SOLVING FOR ZETA FOR LAYER     1 ZONE     2
 SOLVING FOR ZETA FOR LAYER     2 ZONE     2
 SOLVING FOR ZETA FOR LAYER     3 ZONE     2
 
 SOLVING FOR HEAD 

 NO OUTPUT CONTROL FOR STRESS PERIOD    1   TIME STEP   29
 SOLVING FOR ZETA FOR LAYER     1 ZONE     2
 SOLVING FOR ZETA FOR LAYER     2 ZONE     2
 SOLVING FOR ZETA FOR LAYER     3 ZONE     2
 
 SOLVING FOR HEAD 

 NO OUTPUT CONTROL FOR STRESS PERIOD    1   TIME STEP   30
 SOLVING FOR ZETA FOR LAYER     1 ZONE     2
 SOLVING FOR ZETA FOR LAYER     2 ZONE     2
 SOLVING FOR ZETA FOR LAYER     3 ZONE     2
 
 SOLVING FOR HEAD 

 NO OUTPUT CONTROL FOR STRESS PERIOD    1   TIME STEP   31
 SOLVING FOR ZETA FOR LAYER     1 ZONE     2
 SOLVING FOR ZETA FOR LAYER     2 ZONE     2
 SOLVING FOR ZETA FOR LAYER     3 ZONE     2
 
 SOLVING FOR HEAD 

 NO OUTPUT CONTROL FOR STRESS PERIOD    1   TIME STEP   32
 SOLVING FOR ZETA FOR LAYER     1 ZONE     2
 SOLVING FOR ZETA FOR LAYER     2 ZONE     2
 SOLVING FOR ZETA FOR LAYER     3 ZONE     2
 
 SOLVING FOR HEAD 

 NO OUTPUT CONTROL FOR STRESS PERIOD    1   TIME STEP   33
 SOLVING FOR ZETA FOR LAYER     1 ZONE     2
 SOLVING FOR ZETA FOR LAYER     2 ZONE     2
 SOLVING FOR ZETA FOR LAYER     3 ZONE     2
 
 SOLVING FOR HEAD 

 NO OUTPUT CONTROL FOR STRESS PERIOD    1   TIME STEP   34
 SOLVING FOR ZETA FOR LAYER     1 ZONE     2
 SOLVING FOR ZETA FOR LAYER     2 ZONE     2
 SOLVING FOR ZETA FOR LAYER     3 ZONE     2
 
 SOLVING FOR HEAD 

 NO OUTPUT CONTROL FOR STRESS PERIOD    1   TIME STEP   35
 SOLVING FOR ZETA FOR LAYER     1 ZONE     2
 SOLVING FOR ZETA FOR LAYER     2 ZONE     2
 SOLVING FOR ZETA FOR LAYER     3 ZONE     2
 
 SOLVING FOR HEAD 

 NO OUTPUT CONTROL FOR STRESS PERIOD    1   TIME STEP   36
 SOLVING FOR ZETA FOR LAYER     1 ZONE     2
 SOLVING FOR ZETA FOR LAYER     2 ZONE     2
 SOLVING FOR ZETA FOR LAYER     3 ZONE     2
 
 SOLVING FOR HEAD 

 NO OUTPUT CONTROL FOR STRESS PERIOD    1   TIME STEP   37
 SOLVING FOR ZETA FOR LAYER     1 ZONE     2
 SOLVING FOR ZETA FOR LAYER     2 ZONE     2
 SOLVING FOR ZETA FOR LAYER     3 ZONE     2
 
 SOLVING FOR HEAD 

 NO OUTPUT CONTROL FOR STRESS PERIOD    1   TIME STEP   38
 SOLVING FOR ZETA FOR LAYER     1 ZONE     2
 SOLVING FOR ZETA FOR LAYER     2 ZONE     2
 SOLVING FOR ZETA FOR LAYER     3 ZONE     2
 
 SOLVING FOR HEAD 

 NO OUTPUT CONTROL FOR STRESS PERIOD    1   TIME STEP   39
 SOLVING FOR ZETA FOR LAYER     1 ZONE     2
 SOLVING FOR ZETA FOR LAYER     2 ZONE     2
 SOLVING FOR ZETA FOR LAYER     3 ZONE     2
 
 SOLVING FOR HEAD 

 NO OUTPUT CONTROL FOR STRESS PERIOD    1   TIME STEP   40
 SOLVING FOR ZETA FOR LAYER     1 ZONE     2
 SOLVING FOR ZETA FOR LAYER     2 ZONE     2
 SOLVING FOR ZETA FOR LAYER     3 ZONE     2
 
 SOLVING FOR HEAD 

 NO OUTPUT CONTROL FOR STRESS PERIOD    1   TIME STEP   41
 SOLVING FOR ZETA FOR LAYER     1 ZONE     2
 SOLVING FOR ZETA FOR LAYER     2 ZONE     2
 SOLVING FOR ZETA FOR LAYER     3 ZONE     2
 
 SOLVING FOR HEAD 

 NO OUTPUT CONTROL FOR STRESS PERIOD    1   TIME STEP   42
 SOLVING FOR ZETA FOR LAYER     1 ZONE     2
 SOLVING FOR ZETA FOR LAYER     2 ZONE     2
 SOLVING FOR ZETA FOR LAYER     3 ZONE     2
 
 SOLVING FOR HEAD 

 NO OUTPUT CONTROL FOR STRESS PERIOD    1   TIME STEP   43
 SOLVING FOR ZETA FOR LAYER     1 ZONE     2
 SOLVING FOR ZETA FOR LAYER     2 ZONE     2
 SOLVING FOR ZETA FOR LAYER     3 ZONE     2
 
 SOLVING FOR HEAD 

 NO OUTPUT CONTROL FOR STRESS PERIOD    1   TIME STEP   44
 SOLVING FOR ZETA FOR LAYER     1 ZONE     2
 SOLVING FOR ZETA FOR LAYER     2 ZONE     2
 SOLVING FOR ZETA FOR LAYER     3 ZONE     2
 
 SOLVING FOR HEAD 

 NO OUTPUT CONTROL FOR STRESS PERIOD    1   TIME STEP   45
 SOLVING FOR ZETA FOR LAYER     1 ZONE     2
 SOLVING FOR ZETA FOR LAYER     2 ZONE     2
 SOLVING FOR ZETA FOR LAYER     3 ZONE     2
 
 SOLVING FOR HEAD 

 NO OUTPUT CONTROL FOR STRESS PERIOD    1   TIME STEP   46
 SOLVING FOR ZETA FOR LAYER     1 ZONE     2
 SOLVING FOR ZETA FOR LAYER     2 ZONE     2
 SOLVING FOR ZETA FOR LAYER     3 ZONE     2
 
 SOLVING FOR HEAD 

 NO OUTPUT CONTROL FOR STRESS PERIOD    1   TIME STEP   47
 SOLVING FOR ZETA FOR LAYER     1 ZONE     2
 SOLVING FOR ZETA FOR LAYER     2 ZONE     2
 SOLVING FOR ZETA FOR LAYER     3 ZONE     2
 
 SOLVING FOR HEAD 

 NO OUTPUT CONTROL FOR STRESS PERIOD    1   TIME STEP   48
 SOLVING FOR ZETA FOR LAYER     1 ZONE     2
 SOLVING FOR ZETA FOR LAYER     2 ZONE     2
 SOLVING FOR ZETA FOR LAYER     3 ZONE     2
 
 SOLVING FOR HEAD 

 NO OUTPUT CONTROL FOR STRESS PERIOD    1   TIME STEP   49
 SOLVING FOR ZETA FOR LAYER     1 ZONE     2
 SOLVING FOR ZETA FOR LAYER     2 ZONE     2
 SOLVING FOR ZETA FOR LAYER     3 ZONE     2
 
 SOLVING FOR HEAD 

 NO OUTPUT CONTROL FOR STRESS PERIOD    1   TIME STEP   50
 SOLVING FOR ZETA FOR LAYER     1 ZONE     2
 SOLVING FOR ZETA FOR LAYER     2 ZONE     2
 SOLVING FOR ZETA FOR LAYER     3 ZONE     2
 
 SOLVING FOR HEAD 

 NO OUTPUT CONTROL FOR STRESS PERIOD    1   TIME STEP   51
 SOLVING FOR ZETA FOR LAYER     1 ZONE     2
 SOLVING FOR ZETA FOR LAYER     2 ZONE     2
 SOLVING FOR ZETA FOR LAYER     3 ZONE     2
 
 SOLVING FOR HEAD 

 NO OUTPUT CONTROL FOR STRESS PERIOD    1   TIME STEP   52
 SOLVING FOR ZETA FOR LAYER     1 ZONE     2
 SOLVING FOR ZETA FOR LAYER     2 ZONE     2
 SOLVING FOR ZETA FOR LAYER     3 ZONE     2
 
 SOLVING FOR HEAD 

 NO OUTPUT CONTROL FOR STRESS PERIOD    1   TIME STEP   53
 SOLVING FOR ZETA FOR LAYER     1 ZONE     2
 SOLVING FOR ZETA FOR LAYER     2 ZONE     2
 SOLVING FOR ZETA FOR LAYER     3 ZONE     2
 
 SOLVING FOR HEAD 

 NO OUTPUT CONTROL FOR STRESS PERIOD    1   TIME STEP   54
 SOLVING FOR ZETA FOR LAYER     1 ZONE     2
 SOLVING FOR ZETA FOR LAYER     2 ZONE     2
 SOLVING FOR ZETA FOR LAYER     3 ZONE     2
 
 SOLVING FOR HEAD 

 NO OUTPUT CONTROL FOR STRESS PERIOD    1   TIME STEP   55
 SOLVING FOR ZETA FOR LAYER     1 ZONE     2
 SOLVING FOR ZETA FOR LAYER     2 ZONE     2
 SOLVING FOR ZETA FOR LAYER     3 ZONE     2
 
 SOLVING FOR HEAD 

 NO OUTPUT CONTROL FOR STRESS PERIOD    1   TIME STEP   56
 SOLVING FOR ZETA FOR LAYER     1 ZONE     2
 SOLVING FOR ZETA FOR LAYER     2 ZONE     2
 SOLVING FOR ZETA FOR LAYER     3 ZONE     2
 
 SOLVING FOR HEAD 

 NO OUTPUT CONTROL FOR STRESS PERIOD    1   TIME STEP   57
 SOLVING FOR ZETA FOR LAYER     1 ZONE     2
 SOLVING FOR ZETA FOR LAYER     2 ZONE     2
 SOLVING FOR ZETA FOR LAYER     3 ZONE     2
 
 SOLVING FOR HEAD 

 NO OUTPUT CONTROL FOR STRESS PERIOD    1   TIME STEP   58
 SOLVING FOR ZETA FOR LAYER     1 ZONE     2
 SOLVING FOR ZETA FOR LAYER     2 ZONE     2
 SOLVING FOR ZETA FOR LAYER     3 ZONE     2
 
 SOLVING FOR HEAD 

 NO OUTPUT CONTROL FOR STRESS PERIOD    1   TIME STEP   59
 SOLVING FOR ZETA FOR LAYER     1 ZONE     2
 SOLVING FOR ZETA FOR LAYER     2 ZONE     2
 SOLVING FOR ZETA FOR LAYER     3 ZONE     2
 
 SOLVING FOR HEAD 

 NO OUTPUT CONTROL FOR STRESS PERIOD    1   TIME STEP   60
 SOLVING FOR ZETA FOR LAYER     1 ZONE     2
 SOLVING FOR ZETA FOR LAYER     2 ZONE     2
 SOLVING FOR ZETA FOR LAYER     3 ZONE     2
 
 SOLVING FOR HEAD 

 NO OUTPUT CONTROL FOR STRESS PERIOD    1   TIME STEP   61
 SOLVING FOR ZETA FOR LAYER     1 ZONE     2
 SOLVING FOR ZETA FOR LAYER     2 ZONE     2
 SOLVING FOR ZETA FOR LAYER     3 ZONE     2
 
 SOLVING FOR HEAD 

 NO OUTPUT CONTROL FOR STRESS PERIOD    1   TIME STEP   62
 SOLVING FOR ZETA FOR LAYER     1 ZONE     2
 SOLVING FOR ZETA FOR LAYER     2 ZONE     2
 SOLVING FOR ZETA FOR LAYER     3 ZONE     2
 
 SOLVING FOR HEAD 

 NO OUTPUT CONTROL FOR STRESS PERIOD    1   TIME STEP   63
 SOLVING FOR ZETA FOR LAYER     1 ZONE     2
 SOLVING FOR ZETA FOR LAYER     2 ZONE     2
 SOLVING FOR ZETA FOR LAYER     3 ZONE     2
 
 SOLVING FOR HEAD 

 NO OUTPUT CONTROL FOR STRESS PERIOD    1   TIME STEP   64
 SOLVING FOR ZETA FOR LAYER     1 ZONE     2
 SOLVING FOR ZETA FOR LAYER     2 ZONE     2
 SOLVING FOR ZETA FOR LAYER     3 ZONE     2
 
 SOLVING FOR HEAD 

 NO OUTPUT CONTROL FOR STRESS PERIOD    1   TIME STEP   65
 SOLVING FOR ZETA FOR LAYER     1 ZONE     2
 SOLVING FOR ZETA FOR LAYER     2 ZONE     2
 SOLVING FOR ZETA FOR LAYER     3 ZONE     2
 
 SOLVING FOR HEAD 

 NO OUTPUT CONTROL FOR STRESS PERIOD    1   TIME STEP   66
 SOLVING FOR ZETA FOR LAYER     1 ZONE     2
 SOLVING FOR ZETA FOR LAYER     2 ZONE     2
 SOLVING FOR ZETA FOR LAYER     3 ZONE     2
 
 SOLVING FOR HEAD 

 NO OUTPUT CONTROL FOR STRESS PERIOD    1   TIME STEP   67
 SOLVING FOR ZETA FOR LAYER     1 ZONE     2
 SOLVING FOR ZETA FOR LAYER     2 ZONE     2
 SOLVING FOR ZETA FOR LAYER     3 ZONE     2
 
 SOLVING FOR HEAD 

 NO OUTPUT CONTROL FOR STRESS PERIOD    1   TIME STEP   68
 SOLVING FOR ZETA FOR LAYER     1 ZONE     2
 SOLVING FOR ZETA FOR LAYER     2 ZONE     2
 SOLVING FOR ZETA FOR LAYER     3 ZONE     2
 
 SOLVING FOR HEAD 

 NO OUTPUT CONTROL FOR STRESS PERIOD    1   TIME STEP   69
 SOLVING FOR ZETA FOR LAYER     1 ZONE     2
 SOLVING FOR ZETA FOR LAYER     2 ZONE     2
 SOLVING FOR ZETA FOR LAYER     3 ZONE     2
 
 SOLVING FOR HEAD 

 NO OUTPUT CONTROL FOR STRESS PERIOD    1   TIME STEP   70
 SOLVING FOR ZETA FOR LAYER     1 ZONE     2
 SOLVING FOR ZETA FOR LAYER     2 ZONE     2
 SOLVING FOR ZETA FOR LAYER     3 ZONE     2
 
 SOLVING FOR HEAD 

 NO OUTPUT CONTROL FOR STRESS PERIOD    1   TIME STEP   71
 SOLVING FOR ZETA FOR LAYER     1 ZONE     2
 SOLVING FOR ZETA FOR LAYER     2 ZONE     2
 SOLVING FOR ZETA FOR LAYER     3 ZONE     2
 
 SOLVING FOR HEAD 

 NO OUTPUT CONTROL FOR STRESS PERIOD    1   TIME STEP   72
 SOLVING FOR ZETA FOR LAYER     1 ZONE     2
 SOLVING FOR ZETA FOR LAYER     2 ZONE     2
 SOLVING FOR ZETA FOR LAYER     3 ZONE     2
 
 SOLVING FOR HEAD 

 NO OUTPUT CONTROL FOR STRESS PERIOD    1   TIME STEP   73
 SOLVING FOR ZETA FOR LAYER     1 ZONE     2
 SOLVING FOR ZETA FOR LAYER     2 ZONE     2
 SOLVING FOR ZETA FOR LAYER     3 ZONE     2
 
 SOLVING FOR HEAD 

 NO OUTPUT CONTROL FOR STRESS PERIOD    1   TIME STEP   74
 SOLVING FOR ZETA FOR LAYER     1 ZONE     2
 SOLVING FOR ZETA FOR LAYER     2 ZONE     2
 SOLVING FOR ZETA FOR LAYER     3 ZONE     2
 
 SOLVING FOR HEAD 

 NO OUTPUT CONTROL FOR STRESS PERIOD    1   TIME STEP   75
 SOLVING FOR ZETA FOR LAYER     1 ZONE     2
 SOLVING FOR ZETA FOR LAYER     2 ZONE     2
 SOLVING FOR ZETA FOR LAYER     3 ZONE     2
 
 SOLVING FOR HEAD 

 NO OUTPUT CONTROL FOR STRESS PERIOD    1   TIME STEP   76
 SOLVING FOR ZETA FOR LAYER     1 ZONE     2
 SOLVING FOR ZETA FOR LAYER     2 ZONE     2
 SOLVING FOR ZETA FOR LAYER     3 ZONE     2
 
 SOLVING FOR HEAD 

 NO OUTPUT CONTROL FOR STRESS PERIOD    1   TIME STEP   77
 SOLVING FOR ZETA FOR LAYER     1 ZONE     2
 SOLVING FOR ZETA FOR LAYER     2 ZONE     2
 SOLVING FOR ZETA FOR LAYER     3 ZONE     2
 
 SOLVING FOR HEAD 

 NO OUTPUT CONTROL FOR STRESS PERIOD    1   TIME STEP   78
 SOLVING FOR ZETA FOR LAYER     1 ZONE     2
 SOLVING FOR ZETA FOR LAYER     2 ZONE     2
 SOLVING FOR ZETA FOR LAYER     3 ZONE     2
 
 SOLVING FOR HEAD 

 NO OUTPUT CONTROL FOR STRESS PERIOD    1   TIME STEP   79
 SOLVING FOR ZETA FOR LAYER     1 ZONE     2
 SOLVING FOR ZETA FOR LAYER     2 ZONE     2
 SOLVING FOR ZETA FOR LAYER     3 ZONE     2
 
 SOLVING FOR HEAD 

 NO OUTPUT CONTROL FOR STRESS PERIOD    1   TIME STEP   80
 SOLVING FOR ZETA FOR LAYER     1 ZONE     2
 SOLVING FOR ZETA FOR LAYER     2 ZONE     2
 SOLVING FOR ZETA FOR LAYER     3 ZONE     2
 
 SOLVING FOR HEAD 

 NO OUTPUT CONTROL FOR STRESS PERIOD    1   TIME STEP   81
 SOLVING FOR ZETA FOR LAYER     1 ZONE     2
 SOLVING FOR ZETA FOR LAYER     2 ZONE     2
 SOLVING FOR ZETA FOR LAYER     3 ZONE     2
 
 SOLVING FOR HEAD 

 NO OUTPUT CONTROL FOR STRESS PERIOD    1   TIME STEP   82
 SOLVING FOR ZETA FOR LAYER     1 ZONE     2
 SOLVING FOR ZETA FOR LAYER     2 ZONE     2
 SOLVING FOR ZETA FOR LAYER     3 ZONE     2
 
 SOLVING FOR HEAD 

 NO OUTPUT CONTROL FOR STRESS PERIOD    1   TIME STEP   83
 SOLVING FOR ZETA FOR LAYER     1 ZONE     2
 SOLVING FOR ZETA FOR LAYER     2 ZONE     2
 SOLVING FOR ZETA FOR LAYER     3 ZONE     2
 
 SOLVING FOR HEAD 

 NO OUTPUT CONTROL FOR STRESS PERIOD    1   TIME STEP   84
 SOLVING FOR ZETA FOR LAYER     1 ZONE     2
 SOLVING FOR ZETA FOR LAYER     2 ZONE     2
 SOLVING FOR ZETA FOR LAYER     3 ZONE     2
 
 SOLVING FOR HEAD 

 NO OUTPUT CONTROL FOR STRESS PERIOD    1   TIME STEP   85
 SOLVING FOR ZETA FOR LAYER     1 ZONE     2
 SOLVING FOR ZETA FOR LAYER     2 ZONE     2
 SOLVING FOR ZETA FOR LAYER     3 ZONE     2
 
 SOLVING FOR HEAD 

 NO OUTPUT CONTROL FOR STRESS PERIOD    1   TIME STEP   86
 SOLVING FOR ZETA FOR LAYER     1 ZONE     2
 SOLVING FOR ZETA FOR LAYER     2 ZONE     2
 SOLVING FOR ZETA FOR LAYER     3 ZONE     2
 
 SOLVING FOR HEAD 

 NO OUTPUT CONTROL FOR STRESS PERIOD    1   TIME STEP   87
 SOLVING FOR ZETA FOR LAYER     1 ZONE     2
 SOLVING FOR ZETA FOR LAYER     2 ZONE     2
 SOLVING FOR ZETA FOR LAYER     3 ZONE     2
 
 SOLVING FOR HEAD 

 NO OUTPUT CONTROL FOR STRESS PERIOD    1   TIME STEP   88
 SOLVING FOR ZETA FOR LAYER     1 ZONE     2
 SOLVING FOR ZETA FOR LAYER     2 ZONE     2
 SOLVING FOR ZETA FOR LAYER     3 ZONE     2
 
 SOLVING FOR HEAD 

 NO OUTPUT CONTROL FOR STRESS PERIOD    1   TIME STEP   89
 SOLVING FOR ZETA FOR LAYER     1 ZONE     2
 SOLVING FOR ZETA FOR LAYER     2 ZONE     2
 SOLVING FOR ZETA FOR LAYER     3 ZONE     2
 
 SOLVING FOR HEAD 

 NO OUTPUT CONTROL FOR STRESS PERIOD    1   TIME STEP   90
 SOLVING FOR ZETA FOR LAYER     1 ZONE     2
 SOLVING FOR ZETA FOR LAYER     2 ZONE     2
 SOLVING FOR ZETA FOR LAYER     3 ZONE     2
 
 SOLVING FOR HEAD 

 NO OUTPUT CONTROL FOR STRESS PERIOD    1   TIME STEP   91
 SOLVING FOR ZETA FOR LAYER     1 ZONE     2
 SOLVING FOR ZETA FOR LAYER     2 ZONE     2
 SOLVING FOR ZETA FOR LAYER     3 ZONE     2
 
 SOLVING FOR HEAD 

 NO OUTPUT CONTROL FOR STRESS PERIOD    1   TIME STEP   92
 SOLVING FOR ZETA FOR LAYER     1 ZONE     2
 SOLVING FOR ZETA FOR LAYER     2 ZONE     2
 SOLVING FOR ZETA FOR LAYER     3 ZONE     2
 
 SOLVING FOR HEAD 

 NO OUTPUT CONTROL FOR STRESS PERIOD    1   TIME STEP   93
 SOLVING FOR ZETA FOR LAYER     1 ZONE     2
 SOLVING FOR ZETA FOR LAYER     2 ZONE     2
 SOLVING FOR ZETA FOR LAYER     3 ZONE     2
 
 SOLVING FOR HEAD 

 NO OUTPUT CONTROL FOR STRESS PERIOD    1   TIME STEP   94
 SOLVING FOR ZETA FOR LAYER     1 ZONE     2
 SOLVING FOR ZETA FOR LAYER     2 ZONE     2
 SOLVING FOR ZETA FOR LAYER     3 ZONE     2
 
 SOLVING FOR HEAD 

 NO OUTPUT CONTROL FOR STRESS PERIOD    1   TIME STEP   95
 SOLVING FOR ZETA FOR LAYER     1 ZONE     2
 SOLVING FOR ZETA FOR LAYER     2 ZONE     2
 SOLVING FOR ZETA FOR LAYER     3 ZONE     2
 
 SOLVING FOR HEAD 

 NO OUTPUT CONTROL FOR STRESS PERIOD    1   TIME STEP   96
 SOLVING FOR ZETA FOR LAYER     1 ZONE     2
 SOLVING FOR ZETA FOR LAYER     2 ZONE     2
 SOLVING FOR ZETA FOR LAYER     3 ZONE     2
 
 SOLVING FOR HEAD 

 NO OUTPUT CONTROL FOR STRESS PERIOD    1   TIME STEP   97
 SOLVING FOR ZETA FOR LAYER     1 ZONE     2
 SOLVING FOR ZETA FOR LAYER     2 ZONE     2
 SOLVING FOR ZETA FOR LAYER     3 ZONE     2
 
 SOLVING FOR HEAD 

 NO OUTPUT CONTROL FOR STRESS PERIOD    1   TIME STEP   98
 SOLVING FOR ZETA FOR LAYER     1 ZONE     2
 SOLVING FOR ZETA FOR LAYER     2 ZONE     2
 SOLVING FOR ZETA FOR LAYER     3 ZONE     2
 
 SOLVING FOR HEAD 

 NO OUTPUT CONTROL FOR STRESS PERIOD    1   TIME STEP   99
 SOLVING FOR ZETA FOR LAYER     1 ZONE     2
 SOLVING FOR ZETA FOR LAYER     2 ZONE     2
 SOLVING FOR ZETA FOR LAYER     3 ZONE     2
 
 SOLVING FOR HEAD 

 OUTPUT CONTROL FOR STRESS PERIOD    1   TIME STEP  100
    PRINT BUDGET
    SAVE HEAD FOR ALL LAYERS
 SOLVING FOR ZETA FOR LAYER     1 ZONE     2
 SOLVING FOR ZETA FOR LAYER     2 ZONE     2
 SOLVING FOR ZETA FOR LAYER     3 ZONE     2
 UBUDSV SAVING "      ZETASRF  1" ON UNIT 55 AT TIME STEP100, STRESS PERIOD    1


                      VOLUMETRIC SWI ZONE BUDGET FOR ENTIRE MODEL
                     AT END OF TIME STEP  100 IN STRESS PERIOD   1
                                      ZONE     1
  -----------------------------------------------------------------------------------

        CUMULATIVE VOLUMES      L**3       RATES FOR THIS TIME STEP      L**3/T
        ------------------                 ------------------------

              IN:                                      IN:
              ---                                      ---
             BOUNDARIES =    42512696.0000            BOUNDARIES =        5804.8813
          CONSTANT HEAD =           0.0000         CONSTANT HEAD =           0.0000
            ZONE CHANGE =      866184.0625           ZONE CHANGE =          73.0200
       ZONE CHG TIP/TOE =    16482245.0000      ZONE CHG TIP/TOE =         599.5833
            ZONE MIXING =       34175.7734           ZONE MIXING =           0.0000

               TOTAL IN =    59895300.0000              TOTAL IN =        6477.4844

             OUT:                                     OUT:
             ----                                     ----
             BOUNDARIES =    24608620.0000            BOUNDARIES =        4964.9316
          CONSTANT HEAD =           0.0000         CONSTANT HEAD =           0.0000
            ZONE CHANGE =    17574086.0000           ZONE CHANGE =         635.4207
       ZONE CHG TIP/TOE =      135417.0000      ZONE CHG TIP/TOE =           1.6889
            ZONE MIXING =     5547213.0000           ZONE MIXING =         641.0781

              TOTAL OUT =    47865332.0000             TOTAL OUT =        6243.1196

               IN - OUT =    12029968.0000              IN - OUT =         234.3647

    PERCENT DISCREPANCY =          22.33     PERCENT DISCREPANCY =           3.68



                      VOLUMETRIC SWI ZONE BUDGET FOR ENTIRE MODEL
                     AT END OF TIME STEP  100 IN STRESS PERIOD   1
                                      ZONE     2
  -----------------------------------------------------------------------------------

        CUMULATIVE VOLUMES      L**3       RATES FOR THIS TIME STEP      L**3/T
        ------------------                 ------------------------

              IN:                                      IN:
              ---                                      ---
             BOUNDARIES =     5851512.5000            BOUNDARIES =         748.6150
          CONSTANT HEAD =           0.0000         CONSTANT HEAD =           0.0000
            ZONE CHANGE =     1079270.6250           ZONE CHANGE =          35.9939
       ZONE CHG TIP/TOE =     6404840.0000      ZONE CHG TIP/TOE =         587.2253
            ZONE MIXING =     5547213.0000           ZONE MIXING =         641.0781

               TOTAL IN =    18882836.0000              TOTAL IN =        2012.9124

             OUT:                                     OUT:
             ----                                     ----
             BOUNDARIES =    23780994.0000            BOUNDARIES =        1592.0033
          CONSTANT HEAD =           0.0000         CONSTANT HEAD =           0.0000
            ZONE CHANGE =     7158333.0000           ZONE CHANGE =         654.1239
       ZONE CHG TIP/TOE =       18409.6895      ZONE CHG TIP/TOE =           0.6425
            ZONE MIXING =       34175.7734           ZONE MIXING =           0.0000

              TOTAL OUT =    30991914.0000             TOTAL OUT =        2246.7698

               IN - OUT =   -12109078.0000              IN - OUT =        -233.8574

    PERCENT DISCREPANCY =         -48.56     PERCENT DISCREPANCY =         -10.98


 HEAD WILL BE SAVED ON UNIT   51 AT END OF TIME STEP  100, STRESS PERIOD    1
1
  VOLUMETRIC BUDGET FOR ENTIRE MODEL AT END OF TIME STEP  100, STRESS PERIOD   1
  ------------------------------------------------------------------------------

     CUMULATIVE VOLUMES      L**3       RATES FOR THIS TIME STEP      L**3/T
     ------------------                 ------------------------

           IN:                                      IN:
           ---                                      ---
             STORAGE =           0.0000               STORAGE =           0.0000
       CONSTANT HEAD =           0.0000         CONSTANT HEAD =           0.0000
          SWIADDTOCH =           0.0000            SWIADDTOCH =           0.0000
               WELLS =           0.0000                 WELLS =           0.0000
     HEAD DEP BOUNDS =     5544029.0000       HEAD DEP BOUNDS =         691.7338
            RECHARGE =    42820156.0000              RECHARGE =        5861.7627

            TOTAL IN =    48364184.0000              TOTAL IN =        6553.4966

          OUT:                                     OUT:
          ----                                     ----
             STORAGE =           0.0000               STORAGE =           0.0000
       CONSTANT HEAD =           0.0000         CONSTANT HEAD =           0.0000
          SWIADDTOCH =           0.0000            SWIADDTOCH =           0.0000
               WELLS =           0.0000                 WELLS =           0.0000
     HEAD DEP BOUNDS =    48389612.0000       HEAD DEP BOUNDS =        6556.9351
            RECHARGE =           0.0000              RECHARGE =           0.0000

           TOTAL OUT =    48389612.0000             TOTAL OUT =        6556.9351

            IN - OUT =      -25428.0000              IN - OUT =          -3.4385

 PERCENT DISCREPANCY =          -0.05     PERCENT DISCREPANCY =          -0.05






         TIME SUMMARY AT END OF TIME STEP  100 IN STRESS PERIOD    1
                    SECONDS     MINUTES      HOURS       DAYS        YEARS
                    -----------------------------------------------------------
   TIME STEP LENGTH 6.31152E+06 1.05192E+05  1753.2      73.050     0.20000    
 STRESS PERIOD TIME 6.31151E+08 1.05192E+07 1.75320E+05  7305.0      20.000    
         TOTAL TIME 6.31151E+08 1.05192E+07 1.75320E+05  7305.0      20.000    
1
 
 SOLVING FOR HEAD 

 NO OUTPUT CONTROL FOR STRESS PERIOD    1   TIME STEP  101
 SOLVING FOR ZETA FOR LAYER     1 ZONE     2
 SOLVING FOR ZETA FOR LAYER     2 ZONE     2
 SOLVING FOR ZETA FOR LAYER     3 ZONE     2
 
 SOLVING FOR HEAD 

 NO OUTPUT CONTROL FOR STRESS PERIOD    1   TIME STEP  102
 SOLVING FOR ZETA FOR LAYER     1 ZONE     2
 SOLVING FOR ZETA FOR LAYER     2 ZONE     2
 SOLVING FOR ZETA FOR LAYER     3 ZONE     2
 
 SOLVING FOR HEAD 

 NO OUTPUT CONTROL FOR STRESS PERIOD    1   TIME STEP  103
 SOLVING FOR ZETA FOR LAYER     1 ZONE     2
 SOLVING FOR ZETA FOR LAYER     2 ZONE     2
 SOLVING FOR ZETA FOR LAYER     3 ZONE     2
 
 SOLVING FOR HEAD 

 NO OUTPUT CONTROL FOR STRESS PERIOD    1   TIME STEP  104
 SOLVING FOR ZETA FOR LAYER     1 ZONE     2
 SOLVING FOR ZETA FOR LAYER     2 ZONE     2
 SOLVING FOR ZETA FOR LAYER     3 ZONE     2
 
 SOLVING FOR HEAD 

 NO OUTPUT CONTROL FOR STRESS PERIOD    1   TIME STEP  105
 SOLVING FOR ZETA FOR LAYER     1 ZONE     2
 SOLVING FOR ZETA FOR LAYER     2 ZONE     2
 SOLVING FOR ZETA FOR LAYER     3 ZONE     2
 
 SOLVING FOR HEAD 

 NO OUTPUT CONTROL FOR STRESS PERIOD    1   TIME STEP  106
 SOLVING FOR ZETA FOR LAYER     1 ZONE     2
 SOLVING FOR ZETA FOR LAYER     2 ZONE     2
 SOLVING FOR ZETA FOR LAYER     3 ZONE     2
 
 SOLVING FOR HEAD 

 NO OUTPUT CONTROL FOR STRESS PERIOD    1   TIME STEP  107
 SOLVING FOR ZETA FOR LAYER     1 ZONE     2
 SOLVING FOR ZETA FOR LAYER     2 ZONE     2
 SOLVING FOR ZETA FOR LAYER     3 ZONE     2
 
 SOLVING FOR HEAD 

 NO OUTPUT CONTROL FOR STRESS PERIOD    1   TIME STEP  108
 SOLVING FOR ZETA FOR LAYER     1 ZONE     2
 SOLVING FOR ZETA FOR LAYER     2 ZONE     2
 SOLVING FOR ZETA FOR LAYER     3 ZONE     2
 
 SOLVING FOR HEAD 

 NO OUTPUT CONTROL FOR STRESS PERIOD    1   TIME STEP  109
 SOLVING FOR ZETA FOR LAYER     1 ZONE     2
 SOLVING FOR ZETA FOR LAYER     2 ZONE     2
 SOLVING FOR ZETA FOR LAYER     3 ZONE     2
 
 SOLVING FOR HEAD 

 NO OUTPUT CONTROL FOR STRESS PERIOD    1   TIME STEP  110
 SOLVING FOR ZETA FOR LAYER     1 ZONE     2
 SOLVING FOR ZETA FOR LAYER     2 ZONE     2
 SOLVING FOR ZETA FOR LAYER     3 ZONE     2
 
 SOLVING FOR HEAD 

 NO OUTPUT CONTROL FOR STRESS PERIOD    1   TIME STEP  111
 SOLVING FOR ZETA FOR LAYER     1 ZONE     2
 SOLVING FOR ZETA FOR LAYER     2 ZONE     2
 SOLVING FOR ZETA FOR LAYER     3 ZONE     2
 
 SOLVING FOR HEAD 

 NO OUTPUT CONTROL FOR STRESS PERIOD    1   TIME STEP  112
 SOLVING FOR ZETA FOR LAYER     1 ZONE     2
 SOLVING FOR ZETA FOR LAYER     2 ZONE     2
 SOLVING FOR ZETA FOR LAYER     3 ZONE     2
 
 SOLVING FOR HEAD 

 NO OUTPUT CONTROL FOR STRESS PERIOD    1   TIME STEP  113
 SOLVING FOR ZETA FOR LAYER     1 ZONE     2
 SOLVING FOR ZETA FOR LAYER     2 ZONE     2
 SOLVING FOR ZETA FOR LAYER     3 ZONE     2
 
 SOLVING FOR HEAD 

 NO OUTPUT CONTROL FOR STRESS PERIOD    1   TIME STEP  114
 SOLVING FOR ZETA FOR LAYER     1 ZONE     2
 SOLVING FOR ZETA FOR LAYER     2 ZONE     2
 SOLVING FOR ZETA FOR LAYER     3 ZONE     2
 
 SOLVING FOR HEAD 

 NO OUTPUT CONTROL FOR STRESS PERIOD    1   TIME STEP  115
 SOLVING FOR ZETA FOR LAYER     1 ZONE     2
 SOLVING FOR ZETA FOR LAYER     2 ZONE     2
 SOLVING FOR ZETA FOR LAYER     3 ZONE     2
 
 SOLVING FOR HEAD 

 NO OUTPUT CONTROL FOR STRESS PERIOD    1   TIME STEP  116
 SOLVING FOR ZETA FOR LAYER     1 ZONE     2
 SOLVING FOR ZETA FOR LAYER     2 ZONE     2
 SOLVING FOR ZETA FOR LAYER     3 ZONE     2
 
 SOLVING FOR HEAD 

 NO OUTPUT CONTROL FOR STRESS PERIOD    1   TIME STEP  117
 SOLVING FOR ZETA FOR LAYER     1 ZONE     2
 SOLVING FOR ZETA FOR LAYER     2 ZONE     2
 SOLVING FOR ZETA FOR LAYER     3 ZONE     2
 
 SOLVING FOR HEAD 

 NO OUTPUT CONTROL FOR STRESS PERIOD    1   TIME STEP  118
 SOLVING FOR ZETA FOR LAYER     1 ZONE     2
 SOLVING FOR ZETA FOR LAYER     2 ZONE     2
 SOLVING FOR ZETA FOR LAYER     3 ZONE     2
 
 SOLVING FOR HEAD 

 NO OUTPUT CONTROL FOR STRESS PERIOD    1   TIME STEP  119
 SOLVING FOR ZETA FOR LAYER     1 ZONE     2
 SOLVING FOR ZETA FOR LAYER     2 ZONE     2
 SOLVING FOR ZETA FOR LAYER     3 ZONE     2
 
 SOLVING FOR HEAD 

 NO OUTPUT CONTROL FOR STRESS PERIOD    1   TIME STEP  120
 SOLVING FOR ZETA FOR LAYER     1 ZONE     2
 SOLVING FOR ZETA FOR LAYER     2 ZONE     2
 SOLVING FOR ZETA FOR LAYER     3 ZONE     2
 
 SOLVING FOR HEAD 

 NO OUTPUT CONTROL FOR STRESS PERIOD    1   TIME STEP  121
 SOLVING FOR ZETA FOR LAYER     1 ZONE     2
 SOLVING FOR ZETA FOR LAYER     2 ZONE     2
 SOLVING FOR ZETA FOR LAYER     3 ZONE     2
 
 SOLVING FOR HEAD 

 NO OUTPUT CONTROL FOR STRESS PERIOD    1   TIME STEP  122
 SOLVING FOR ZETA FOR LAYER     1 ZONE     2
 SOLVING FOR ZETA FOR LAYER     2 ZONE     2
 SOLVING FOR ZETA FOR LAYER     3 ZONE     2
 
 SOLVING FOR HEAD 

 NO OUTPUT CONTROL FOR STRESS PERIOD    1   TIME STEP  123
 SOLVING FOR ZETA FOR LAYER     1 ZONE     2
 SOLVING FOR ZETA FOR LAYER     2 ZONE     2
 SOLVING FOR ZETA FOR LAYER     3 ZONE     2
 
 SOLVING FOR HEAD 

 NO OUTPUT CONTROL FOR STRESS PERIOD    1   TIME STEP  124
 SOLVING FOR ZETA FOR LAYER     1 ZONE     2
 SOLVING FOR ZETA FOR LAYER     2 ZONE     2
 SOLVING FOR ZETA FOR LAYER     3 ZONE     2
 
 SOLVING FOR HEAD 

 NO OUTPUT CONTROL FOR STRESS PERIOD    1   TIME STEP  125
 SOLVING FOR ZETA FOR LAYER     1 ZONE     2
 SOLVING FOR ZETA FOR LAYER     2 ZONE     2
 SOLVING FOR ZETA FOR LAYER     3 ZONE     2
 
 SOLVING FOR HEAD 

 NO OUTPUT CONTROL FOR STRESS PERIOD    1   TIME STEP  126
 SOLVING FOR ZETA FOR LAYER     1 ZONE     2
 SOLVING FOR ZETA FOR LAYER     2 ZONE     2
 SOLVING FOR ZETA FOR LAYER     3 ZONE     2
 
 SOLVING FOR HEAD 

 NO OUTPUT CONTROL FOR STRESS PERIOD    1   TIME STEP  127
 SOLVING FOR ZETA FOR LAYER     1 ZONE     2
 SOLVING FOR ZETA FOR LAYER     2 ZONE     2
 SOLVING FOR ZETA FOR LAYER     3 ZONE     2
 
 SOLVING FOR HEAD 

 NO OUTPUT CONTROL FOR STRESS PERIOD    1   TIME STEP  128
 SOLVING FOR ZETA FOR LAYER     1 ZONE     2
 SOLVING FOR ZETA FOR LAYER     2 ZONE     2
 SOLVING FOR ZETA FOR LAYER     3 ZONE     2
 
 SOLVING FOR HEAD 

 NO OUTPUT CONTROL FOR STRESS PERIOD    1   TIME STEP  129
 SOLVING FOR ZETA FOR LAYER     1 ZONE     2
 SOLVING FOR ZETA FOR LAYER     2 ZONE     2
 SOLVING FOR ZETA FOR LAYER     3 ZONE     2
 
 SOLVING FOR HEAD 

 NO OUTPUT CONTROL FOR STRESS PERIOD    1   TIME STEP  130
 SOLVING FOR ZETA FOR LAYER     1 ZONE     2
 SOLVING FOR ZETA FOR LAYER     2 ZONE     2
 SOLVING FOR ZETA FOR LAYER     3 ZONE     2
 
 SOLVING FOR HEAD 

 NO OUTPUT CONTROL FOR STRESS PERIOD    1   TIME STEP  131
 SOLVING FOR ZETA FOR LAYER     1 ZONE     2
 SOLVING FOR ZETA FOR LAYER     2 ZONE     2
 SOLVING FOR ZETA FOR LAYER     3 ZONE     2
 
 SOLVING FOR HEAD 

 NO OUTPUT CONTROL FOR STRESS PERIOD    1   TIME STEP  132
 SOLVING FOR ZETA FOR LAYER     1 ZONE     2
 SOLVING FOR ZETA FOR LAYER     2 ZONE     2
 SOLVING FOR ZETA FOR LAYER     3 ZONE     2
 
 SOLVING FOR HEAD 

 NO OUTPUT CONTROL FOR STRESS PERIOD    1   TIME STEP  133
 SOLVING FOR ZETA FOR LAYER     1 ZONE     2
 SOLVING FOR ZETA FOR LAYER     2 ZONE     2
 SOLVING FOR ZETA FOR LAYER     3 ZONE     2
 
 SOLVING FOR HEAD 

 NO OUTPUT CONTROL FOR STRESS PERIOD    1   TIME STEP  134
 SOLVING FOR ZETA FOR LAYER     1 ZONE     2
 SOLVING FOR ZETA FOR LAYER     2 ZONE     2
 SOLVING FOR ZETA FOR LAYER     3 ZONE     2
 
 SOLVING FOR HEAD 

 NO OUTPUT CONTROL FOR STRESS PERIOD    1   TIME STEP  135
 SOLVING FOR ZETA FOR LAYER     1 ZONE     2
 SOLVING FOR ZETA FOR LAYER     2 ZONE     2
 SOLVING FOR ZETA FOR LAYER     3 ZONE     2
 
 SOLVING FOR HEAD 

 NO OUTPUT CONTROL FOR STRESS PERIOD    1   TIME STEP  136
 SOLVING FOR ZETA FOR LAYER     1 ZONE     2
 SOLVING FOR ZETA FOR LAYER     2 ZONE     2
 SOLVING FOR ZETA FOR LAYER     3 ZONE     2
 
 SOLVING FOR HEAD 

 NO OUTPUT CONTROL FOR STRESS PERIOD    1   TIME STEP  137
 SOLVING FOR ZETA FOR LAYER     1 ZONE     2
 SOLVING FOR ZETA FOR LAYER     2 ZONE     2
 SOLVING FOR ZETA FOR LAYER     3 ZONE     2
 
 SOLVING FOR HEAD 

 NO OUTPUT CONTROL FOR STRESS PERIOD    1   TIME STEP  138
 SOLVING FOR ZETA FOR LAYER     1 ZONE     2
 SOLVING FOR ZETA FOR LAYER     2 ZONE     2
 SOLVING FOR ZETA FOR LAYER     3 ZONE     2
 
 SOLVING FOR HEAD 

 NO OUTPUT CONTROL FOR STRESS PERIOD    1   TIME STEP  139
 SOLVING FOR ZETA FOR LAYER     1 ZONE     2
 SOLVING FOR ZETA FOR LAYER     2 ZONE     2
 SOLVING FOR ZETA FOR LAYER     3 ZONE     2
 
 SOLVING FOR HEAD 

 NO OUTPUT CONTROL FOR STRESS PERIOD    1   TIME STEP  140
 SOLVING FOR ZETA FOR LAYER     1 ZONE     2
 SOLVING FOR ZETA FOR LAYER     2 ZONE     2
 SOLVING FOR ZETA FOR LAYER     3 ZONE     2
 
 SOLVING FOR HEAD 

 NO OUTPUT CONTROL FOR STRESS PERIOD    1   TIME STEP  141
 SOLVING FOR ZETA FOR LAYER     1 ZONE     2
 SOLVING FOR ZETA FOR LAYER     2 ZONE     2
 SOLVING FOR ZETA FOR LAYER     3 ZONE     2
 
 SOLVING FOR HEAD 

 NO OUTPUT CONTROL FOR STRESS PERIOD    1   TIME STEP  142
 SOLVING FOR ZETA FOR LAYER     1 ZONE     2
 SOLVING FOR ZETA FOR LAYER     2 ZONE     2
 SOLVING FOR ZETA FOR LAYER     3 ZONE     2
 
 SOLVING FOR HEAD 

 NO OUTPUT CONTROL FOR STRESS PERIOD    1   TIME STEP  143
 SOLVING FOR ZETA FOR LAYER     1 ZONE     2
 SOLVING FOR ZETA FOR LAYER     2 ZONE     2
 SOLVING FOR ZETA FOR LAYER     3 ZONE     2
 
 SOLVING FOR HEAD 

 NO OUTPUT CONTROL FOR STRESS PERIOD    1   TIME STEP  144
 SOLVING FOR ZETA FOR LAYER     1 ZONE     2
 SOLVING FOR ZETA FOR LAYER     2 ZONE     2
 SOLVING FOR ZETA FOR LAYER     3 ZONE     2
 
 SOLVING FOR HEAD 

 NO OUTPUT CONTROL FOR STRESS PERIOD    1   TIME STEP  145
 SOLVING FOR ZETA FOR LAYER     1 ZONE     2
 SOLVING FOR ZETA FOR LAYER     2 ZONE     2
 SOLVING FOR ZETA FOR LAYER     3 ZONE     2
 
 SOLVING FOR HEAD 

 NO OUTPUT CONTROL FOR STRESS PERIOD    1   TIME STEP  146
 SOLVING FOR ZETA FOR LAYER     1 ZONE     2
 SOLVING FOR ZETA FOR LAYER     2 ZONE     2
 SOLVING FOR ZETA FOR LAYER     3 ZONE     2
 
 SOLVING FOR HEAD 

 NO OUTPUT CONTROL FOR STRESS PERIOD    1   TIME STEP  147
 SOLVING FOR ZETA FOR LAYER     1 ZONE     2
 SOLVING FOR ZETA FOR LAYER     2 ZONE     2
 SOLVING FOR ZETA FOR LAYER     3 ZONE     2
 
 SOLVING FOR HEAD 

 NO OUTPUT CONTROL FOR STRESS PERIOD    1   TIME STEP  148
 SOLVING FOR ZETA FOR LAYER     1 ZONE     2
 SOLVING FOR ZETA FOR LAYER     2 ZONE     2
 SOLVING FOR ZETA FOR LAYER     3 ZONE     2
 
 SOLVING FOR HEAD 

 NO OUTPUT CONTROL FOR STRESS PERIOD    1   TIME STEP  149
 SOLVING FOR ZETA FOR LAYER     1 ZONE     2
 SOLVING FOR ZETA FOR LAYER     2 ZONE     2
 SOLVING FOR ZETA FOR LAYER     3 ZONE     2
 
 SOLVING FOR HEAD 

 NO OUTPUT CONTROL FOR STRESS PERIOD    1   TIME STEP  150
 SOLVING FOR ZETA FOR LAYER     1 ZONE     2
 SOLVING FOR ZETA FOR LAYER     2 ZONE     2
 SOLVING FOR ZETA FOR LAYER     3 ZONE     2
 
 SOLVING FOR HEAD 

 NO OUTPUT CONTROL FOR STRESS PERIOD    1   TIME STEP  151
 SOLVING FOR ZETA FOR LAYER     1 ZONE     2
 SOLVING FOR ZETA FOR LAYER     2 ZONE     2
 SOLVING FOR ZETA FOR LAYER     3 ZONE     2
 
 SOLVING FOR HEAD 

 NO OUTPUT CONTROL FOR STRESS PERIOD    1   TIME STEP  152
 SOLVING FOR ZETA FOR LAYER     1 ZONE     2
 SOLVING FOR ZETA FOR LAYER     2 ZONE     2
 SOLVING FOR ZETA FOR LAYER     3 ZONE     2
 
 SOLVING FOR HEAD 

 NO OUTPUT CONTROL FOR STRESS PERIOD    1   TIME STEP  153
 SOLVING FOR ZETA FOR LAYER     1 ZONE     2
 SOLVING FOR ZETA FOR LAYER     2 ZONE     2
 SOLVING FOR ZETA FOR LAYER     3 ZONE     2
 
 SOLVING FOR HEAD 

 NO OUTPUT CONTROL FOR STRESS PERIOD    1   TIME STEP  154
 SOLVING FOR ZETA FOR LAYER     1 ZONE     2
 SOLVING FOR ZETA FOR LAYER     2 ZONE     2
 SOLVING FOR ZETA FOR LAYER     3 ZONE     2
 
 SOLVING FOR HEAD 

 NO OUTPUT CONTROL FOR STRESS PERIOD    1   TIME STEP  155
 SOLVING FOR ZETA FOR LAYER     1 ZONE     2
 SOLVING FOR ZETA FOR LAYER     2 ZONE     2
 SOLVING FOR ZETA FOR LAYER     3 ZONE     2
 
 SOLVING FOR HEAD 

 NO OUTPUT CONTROL FOR STRESS PERIOD    1   TIME STEP  156
 SOLVING FOR ZETA FOR LAYER     1 ZONE     2
 SOLVING FOR ZETA FOR LAYER     2 ZONE     2
 SOLVING FOR ZETA FOR LAYER     3 ZONE     2
 
 SOLVING FOR HEAD 

 NO OUTPUT CONTROL FOR STRESS PERIOD    1   TIME STEP  157
 SOLVING FOR ZETA FOR LAYER     1 ZONE     2
 SOLVING FOR ZETA FOR LAYER     2 ZONE     2
 SOLVING FOR ZETA FOR LAYER     3 ZONE     2
 
 SOLVING FOR HEAD 

 NO OUTPUT CONTROL FOR STRESS PERIOD    1   TIME STEP  158
 SOLVING FOR ZETA FOR LAYER     1 ZONE     2
 SOLVING FOR ZETA FOR LAYER     2 ZONE     2
 SOLVING FOR ZETA FOR LAYER     3 ZONE     2
 
 SOLVING FOR HEAD 

 NO OUTPUT CONTROL FOR STRESS PERIOD    1   TIME STEP  159
 SOLVING FOR ZETA FOR LAYER     1 ZONE     2
 SOLVING FOR ZETA FOR LAYER     2 ZONE     2
 SOLVING FOR ZETA FOR LAYER     3 ZONE     2
 
 SOLVING FOR HEAD 

 NO OUTPUT CONTROL FOR STRESS PERIOD    1   TIME STEP  160
 SOLVING FOR ZETA FOR LAYER     1 ZONE     2
 SOLVING FOR ZETA FOR LAYER     2 ZONE     2
 SOLVING FOR ZETA FOR LAYER     3 ZONE     2
 
 SOLVING FOR HEAD 

 NO OUTPUT CONTROL FOR STRESS PERIOD    1   TIME STEP  161
 SOLVING FOR ZETA FOR LAYER     1 ZONE     2
 SOLVING FOR ZETA FOR LAYER     2 ZONE     2
 SOLVING FOR ZETA FOR LAYER     3 ZONE     2
 
 SOLVING FOR HEAD 

 NO OUTPUT CONTROL FOR STRESS PERIOD    1   TIME STEP  162
 SOLVING FOR ZETA FOR LAYER     1 ZONE     2
 SOLVING FOR ZETA FOR LAYER     2 ZONE     2
 SOLVING FOR ZETA FOR LAYER     3 ZONE     2
 
 SOLVING FOR HEAD 

 NO OUTPUT CONTROL FOR STRESS PERIOD    1   TIME STEP  163
 SOLVING FOR ZETA FOR LAYER     1 ZONE     2
 SOLVING FOR ZETA FOR LAYER     2 ZONE     2
 SOLVING FOR ZETA FOR LAYER     3 ZONE     2
 
 SOLVING FOR HEAD 

 NO OUTPUT CONTROL FOR STRESS PERIOD    1   TIME STEP  164
 SOLVING FOR ZETA FOR LAYER     1 ZONE     2
 SOLVING FOR ZETA FOR LAYER     2 ZONE     2
 SOLVING FOR ZETA FOR LAYER     3 ZONE     2
 
 SOLVING FOR HEAD 

 NO OUTPUT CONTROL FOR STRESS PERIOD    1   TIME STEP  165
 SOLVING FOR ZETA FOR LAYER     1 ZONE     2
 SOLVING FOR ZETA FOR LAYER     2 ZONE     2
 SOLVING FOR ZETA FOR LAYER     3 ZONE     2
 
 SOLVING FOR HEAD 

 NO OUTPUT CONTROL FOR STRESS PERIOD    1   TIME STEP  166
 SOLVING FOR ZETA FOR LAYER     1 ZONE     2
 SOLVING FOR ZETA FOR LAYER     2 ZONE     2
 SOLVING FOR ZETA FOR LAYER     3 ZONE     2
 
 SOLVING FOR HEAD 

 NO OUTPUT CONTROL FOR STRESS PERIOD    1   TIME STEP  167
 SOLVING FOR ZETA FOR LAYER     1 ZONE     2
 SOLVING FOR ZETA FOR LAYER     2 ZONE     2
 SOLVING FOR ZETA FOR LAYER     3 ZONE     2
 
 SOLVING FOR HEAD 

 NO OUTPUT CONTROL FOR STRESS PERIOD    1   TIME STEP  168
 SOLVING FOR ZETA FOR LAYER     1 ZONE     2
 SOLVING FOR ZETA FOR LAYER     2 ZONE     2
 SOLVING FOR ZETA FOR LAYER     3 ZONE     2
 
 SOLVING FOR HEAD 

 NO OUTPUT CONTROL FOR STRESS PERIOD    1   TIME STEP  169
 SOLVING FOR ZETA FOR LAYER     1 ZONE     2
 SOLVING FOR ZETA FOR LAYER     2 ZONE     2
 SOLVING FOR ZETA FOR LAYER     3 ZONE     2
 
 SOLVING FOR HEAD 

 NO OUTPUT CONTROL FOR STRESS PERIOD    1   TIME STEP  170
 SOLVING FOR ZETA FOR LAYER     1 ZONE     2
 SOLVING FOR ZETA FOR LAYER     2 ZONE     2
 SOLVING FOR ZETA FOR LAYER     3 ZONE     2
 
 SOLVING FOR HEAD 

 NO OUTPUT CONTROL FOR STRESS PERIOD    1   TIME STEP  171
 SOLVING FOR ZETA FOR LAYER     1 ZONE     2
 SOLVING FOR ZETA FOR LAYER     2 ZONE     2
 SOLVING FOR ZETA FOR LAYER     3 ZONE     2
 
 SOLVING FOR HEAD 

 NO OUTPUT CONTROL FOR STRESS PERIOD    1   TIME STEP  172
 SOLVING FOR ZETA FOR LAYER     1 ZONE     2
 SOLVING FOR ZETA FOR LAYER     2 ZONE     2
 SOLVING FOR ZETA FOR LAYER     3 ZONE     2
 
 SOLVING FOR HEAD 

 NO OUTPUT CONTROL FOR STRESS PERIOD    1   TIME STEP  173
 SOLVING FOR ZETA FOR LAYER     1 ZONE     2
 SOLVING FOR ZETA FOR LAYER     2 ZONE     2
 SOLVING FOR ZETA FOR LAYER     3 ZONE     2
 
 SOLVING FOR HEAD 

 NO OUTPUT CONTROL FOR STRESS PERIOD    1   TIME STEP  174
 SOLVING FOR ZETA FOR LAYER     1 ZONE     2
 SOLVING FOR ZETA FOR LAYER     2 ZONE     2
 SOLVING FOR ZETA FOR LAYER     3 ZONE     2
 
 SOLVING FOR HEAD 

 NO OUTPUT CONTROL FOR STRESS PERIOD    1   TIME STEP  175
 SOLVING FOR ZETA FOR LAYER     1 ZONE     2
 SOLVING FOR ZETA FOR LAYER     2 ZONE     2
 SOLVING FOR ZETA FOR LAYER     3 ZONE     2
 
 SOLVING FOR HEAD 

 NO OUTPUT CONTROL FOR STRESS PERIOD    1   TIME STEP  176
 SOLVING FOR ZETA FOR LAYER     1 ZONE     2
 SOLVING FOR ZETA FOR LAYER     2 ZONE     2
 SOLVING FOR ZETA FOR LAYER     3 ZONE     2
 
 SOLVING FOR HEAD 

 NO OUTPUT CONTROL FOR STRESS PERIOD    1   TIME STEP  177
 SOLVING FOR ZETA FOR LAYER     1 ZONE     2
 SOLVING FOR ZETA FOR LAYER     2 ZONE     2
 SOLVING FOR ZETA FOR LAYER     3 ZONE     2
 
 SOLVING FOR HEAD 

 NO OUTPUT CONTROL FOR STRESS PERIOD    1   TIME STEP  178
 SOLVING FOR ZETA FOR LAYER     1 ZONE     2
 SOLVING FOR ZETA FOR LAYER     2 ZONE     2
 SOLVING FOR ZETA FOR LAYER     3 ZONE     2
 
 SOLVING FOR HEAD 

 NO OUTPUT CONTROL FOR STRESS PERIOD    1   TIME STEP  179
 SOLVING FOR ZETA FOR LAYER     1 ZONE     2
 SOLVING FOR ZETA FOR LAYER     2 ZONE     2
 SOLVING FOR ZETA FOR LAYER     3 ZONE     2
 
 SOLVING FOR HEAD 

 NO OUTPUT CONTROL FOR STRESS PERIOD    1   TIME STEP  180
 SOLVING FOR ZETA FOR LAYER     1 ZONE     2
 SOLVING FOR ZETA FOR LAYER     2 ZONE     2
 SOLVING FOR ZETA FOR LAYER     3 ZONE     2
 
 SOLVING FOR HEAD 

 NO OUTPUT CONTROL FOR STRESS PERIOD    1   TIME STEP  181
 SOLVING FOR ZETA FOR LAYER     1 ZONE     2
 SOLVING FOR ZETA FOR LAYER     2 ZONE     2
 SOLVING FOR ZETA FOR LAYER     3 ZONE     2
 
 SOLVING FOR HEAD 

 NO OUTPUT CONTROL FOR STRESS PERIOD    1   TIME STEP  182
 SOLVING FOR ZETA FOR LAYER     1 ZONE     2
 SOLVING FOR ZETA FOR LAYER     2 ZONE     2
 SOLVING FOR ZETA FOR LAYER     3 ZONE     2
 
 SOLVING FOR HEAD 

 NO OUTPUT CONTROL FOR STRESS PERIOD    1   TIME STEP  183
 SOLVING FOR ZETA FOR LAYER     1 ZONE     2
 SOLVING FOR ZETA FOR LAYER     2 ZONE     2
 SOLVING FOR ZETA FOR LAYER     3 ZONE     2
 
 SOLVING FOR HEAD 

 NO OUTPUT CONTROL FOR STRESS PERIOD    1   TIME STEP  184
 SOLVING FOR ZETA FOR LAYER     1 ZONE     2
 SOLVING FOR ZETA FOR LAYER     2 ZONE     2
 SOLVING FOR ZETA FOR LAYER     3 ZONE     2
 
 SOLVING FOR HEAD 

 NO OUTPUT CONTROL FOR STRESS PERIOD    1   TIME STEP  185
 SOLVING FOR ZETA FOR LAYER     1 ZONE     2
 SOLVING FOR ZETA FOR LAYER     2 ZONE     2
 SOLVING FOR ZETA FOR LAYER     3 ZONE     2
 
 SOLVING FOR HEAD 

 NO OUTPUT CONTROL FOR STRESS PERIOD    1   TIME STEP  186
 SOLVING FOR ZETA FOR LAYER     1 ZONE     2
 SOLVING FOR ZETA FOR LAYER     2 ZONE     2
 SOLVING FOR ZETA FOR LAYER     3 ZONE     2
 
 SOLVING FOR HEAD 

 NO OUTPUT CONTROL FOR STRESS PERIOD    1   TIME STEP  187
 SOLVING FOR ZETA FOR LAYER     1 ZONE     2
 SOLVING FOR ZETA FOR LAYER     2 ZONE     2
 SOLVING FOR ZETA FOR LAYER     3 ZONE     2
 
 SOLVING FOR HEAD 

 NO OUTPUT CONTROL FOR STRESS PERIOD    1   TIME STEP  188
 SOLVING FOR ZETA FOR LAYER     1 ZONE     2
 SOLVING FOR ZETA FOR LAYER     2 ZONE     2
 SOLVING FOR ZETA FOR LAYER     3 ZONE     2
 
 SOLVING FOR HEAD 

 NO OUTPUT CONTROL FOR STRESS PERIOD    1   TIME STEP  189
 SOLVING FOR ZETA FOR LAYER     1 ZONE     2
 SOLVING FOR ZETA FOR LAYER     2 ZONE     2
 SOLVING FOR ZETA FOR LAYER     3 ZONE     2
 
 SOLVING FOR HEAD 

 NO OUTPUT CONTROL FOR STRESS PERIOD    1   TIME STEP  190
 SOLVING FOR ZETA FOR LAYER     1 ZONE     2
 SOLVING FOR ZETA FOR LAYER     2 ZONE     2
 SOLVING FOR ZETA FOR LAYER     3 ZONE     2
 
 SOLVING FOR HEAD 

 NO OUTPUT CONTROL FOR STRESS PERIOD    1   TIME STEP  191
 SOLVING FOR ZETA FOR LAYER     1 ZONE     2
 SOLVING FOR ZETA FOR LAYER     2 ZONE     2
 SOLVING FOR ZETA FOR LAYER     3 ZONE     2
 
 SOLVING FOR HEAD 

 NO OUTPUT CONTROL FOR STRESS PERIOD    1   TIME STEP  192
 SOLVING FOR ZETA FOR LAYER     1 ZONE     2
 SOLVING FOR ZETA FOR LAYER     2 ZONE     2
 SOLVING FOR ZETA FOR LAYER     3 ZONE     2
 
 SOLVING FOR HEAD 

 NO OUTPUT CONTROL FOR STRESS PERIOD    1   TIME STEP  193
 SOLVING FOR ZETA FOR LAYER     1 ZONE     2
 SOLVING FOR ZETA FOR LAYER     2 ZONE     2
 SOLVING FOR ZETA FOR LAYER     3 ZONE     2
 
 SOLVING FOR HEAD 

 NO OUTPUT CONTROL FOR STRESS PERIOD    1   TIME STEP  194
 SOLVING FOR ZETA FOR LAYER     1 ZONE     2
 SOLVING FOR ZETA FOR LAYER     2 ZONE     2
 SOLVING FOR ZETA FOR LAYER     3 ZONE     2
 
 SOLVING FOR HEAD 

 NO OUTPUT CONTROL FOR STRESS PERIOD    1   TIME STEP  195
 SOLVING FOR ZETA FOR LAYER     1 ZONE     2
 SOLVING FOR ZETA FOR LAYER     2 ZONE     2
 SOLVING FOR ZETA FOR LAYER     3 ZONE     2
 
 SOLVING FOR HEAD 

 NO OUTPUT CONTROL FOR STRESS PERIOD    1   TIME STEP  196
 SOLVING FOR ZETA FOR LAYER     1 ZONE     2
 SOLVING FOR ZETA FOR LAYER     2 ZONE     2
 SOLVING FOR ZETA FOR LAYER     3 ZONE     2
 
 SOLVING FOR HEAD 

 NO OUTPUT CONTROL FOR STRESS PERIOD    1   TIME STEP  197
 SOLVING FOR ZETA FOR LAYER     1 ZONE     2
 SOLVING FOR ZETA FOR LAYER     2 ZONE     2
 SOLVING FOR ZETA FOR LAYER     3 ZONE     2
 
 SOLVING FOR HEAD 

 NO OUTPUT CONTROL FOR STRESS PERIOD    1   TIME STEP  198
 SOLVING FOR ZETA FOR LAYER     1 ZONE     2
 SOLVING FOR ZETA FOR LAYER     2 ZONE     2
 SOLVING FOR ZETA FOR LAYER     3 ZONE     2
 
 SOLVING FOR HEAD 

 NO OUTPUT CONTROL FOR STRESS PERIOD    1   TIME STEP  199
 SOLVING FOR ZETA FOR LAYER     1 ZONE     2
 SOLVING FOR ZETA FOR LAYER     2 ZONE     2
 SOLVING FOR ZETA FOR LAYER     3 ZONE     2
 
 SOLVING FOR HEAD 

 OUTPUT CONTROL FOR STRESS PERIOD    1   TIME STEP  200
    PRINT BUDGET
    SAVE HEAD FOR ALL LAYERS
 SOLVING FOR ZETA FOR LAYER     1 ZONE     2
 SOLVING FOR ZETA FOR LAYER     2 ZONE     2
 SOLVING FOR ZETA FOR LAYER     3 ZONE     2
 UBUDSV SAVING "      ZETASRF  1" ON UNIT 55 AT TIME STEP200, STRESS PERIOD    1


                      VOLUMETRIC SWI ZONE BUDGET FOR ENTIRE MODEL
                     AT END OF TIME STEP  200 IN STRESS PERIOD   1
                                      ZONE     1
  -----------------------------------------------------------------------------------

        CUMULATIVE VOLUMES      L**3       RATES FOR THIS TIME STEP      L**3/T
        ------------------                 ------------------------

              IN:                                      IN:
              ---                                      ---
             BOUNDARIES =    84463792.0000            BOUNDARIES =        5730.0376
          CONSTANT HEAD =           0.0000         CONSTANT HEAD =           0.0000
            ZONE CHANGE =     1589089.0000           ZONE CHANGE =         135.5984
       ZONE CHG TIP/TOE =    32838322.0000      ZONE CHG TIP/TOE =        1884.5634
            ZONE MIXING =       62002.0859           ZONE MIXING =           6.6363

               TOTAL IN =   118953200.0000              TOTAL IN =        7756.8354

             OUT:                                     OUT:
             ----                                     ----
             BOUNDARIES =    50608096.0000            BOUNDARIES =        4449.0000
          CONSTANT HEAD =           0.0000         CONSTANT HEAD =           0.0000
            ZONE CHANGE =    34644456.0000           ZONE CHANGE =        2013.8528
       ZONE CHG TIP/TOE =      153889.4844      ZONE CHG TIP/TOE =           1.4374
            ZONE MIXING =    11391001.0000           ZONE MIXING =         756.9484

              TOTAL OUT =    96797440.0000             TOTAL OUT =        7221.2383

               IN - OUT =    22155760.0000              IN - OUT =         535.5972

    PERCENT DISCREPANCY =          20.54     PERCENT DISCREPANCY =           7.15



                      VOLUMETRIC SWI ZONE BUDGET FOR ENTIRE MODEL
                     AT END OF TIME STEP  200 IN STRESS PERIOD   1
                                      ZONE     2
  -----------------------------------------------------------------------------------

        CUMULATIVE VOLUMES      L**3       RATES FOR THIS TIME STEP      L**3/T
        ------------------                 ------------------------

              IN:                                      IN:
              ---                                      ---
             BOUNDARIES =    12714093.0000            BOUNDARIES =         989.0596
          CONSTANT HEAD =           0.0000         CONSTANT HEAD =           0.0000
            ZONE CHANGE =     1787071.8750           ZONE CHANGE =         129.6012
       ZONE CHG TIP/TOE =    13833839.0000      ZONE CHG TIP/TOE =        1514.1759
            ZONE MIXING =    11391001.0000           ZONE MIXING =         756.9484

               TOTAL IN =    39726004.0000              TOTAL IN =        3389.7852

             OUT:                                     OUT:
             ----                                     ----
             BOUNDARIES =    46620904.0000            BOUNDARIES =        2273.5920
          CONSTANT HEAD =           0.0000         CONSTANT HEAD =           0.0000
            ZONE CHANGE =    15276081.0000           ZONE CHANGE =        1644.8090
       ZONE CHG TIP/TOE =       27666.1406      ZONE CHG TIP/TOE =           1.2020
            ZONE MIXING =       62002.0859           ZONE MIXING =           6.6363

              TOTAL OUT =    61986656.0000             TOTAL OUT =        3926.2390

               IN - OUT =   -22260652.0000              IN - OUT =        -536.4539

    PERCENT DISCREPANCY =         -43.77     PERCENT DISCREPANCY =         -14.67


 HEAD WILL BE SAVED ON UNIT   51 AT END OF TIME STEP  200, STRESS PERIOD    1
1
  VOLUMETRIC BUDGET FOR ENTIRE MODEL AT END OF TIME STEP  200, STRESS PERIOD   1
  ------------------------------------------------------------------------------

     CUMULATIVE VOLUMES      L**3       RATES FOR THIS TIME STEP      L**3/T
     ------------------                 ------------------------

           IN:                                      IN:
           ---                                      ---
             STORAGE =           0.0000               STORAGE =           0.0000
       CONSTANT HEAD =           0.0000         CONSTANT HEAD =           0.0000
          SWIADDTOCH =           0.0000            SWIADDTOCH =           0.0000
               WELLS =           0.0000                 WELLS =           0.0000
     HEAD DEP BOUNDS =    11537537.0000       HEAD DEP BOUNDS =         857.3347
            RECHARGE =    85640160.0000              RECHARGE =        5861.7627

            TOTAL IN =    97177696.0000              TOTAL IN =        6719.0972

          OUT:                                     OUT:
          ----                                     ----
             STORAGE =           0.0000               STORAGE =           0.0000
       CONSTANT HEAD =           0.0000         CONSTANT HEAD =           0.0000
          SWIADDTOCH =           0.0000            SWIADDTOCH =           0.0000
               WELLS =           0.0000                 WELLS =           0.0000
     HEAD DEP BOUNDS =    97229000.0000       HEAD DEP BOUNDS =        6722.5918
            RECHARGE =           0.0000              RECHARGE =           0.0000

           TOTAL OUT =    97229000.0000             TOTAL OUT =        6722.5918

            IN - OUT =      -51304.0000              IN - OUT =          -3.4946

 PERCENT DISCREPANCY =          -0.05     PERCENT DISCREPANCY =          -0.05






         TIME SUMMARY AT END OF TIME STEP  200 IN STRESS PERIOD    1
                    SECONDS     MINUTES      HOURS       DAYS        YEARS
                    -----------------------------------------------------------
   TIME STEP LENGTH 6.31152E+06 1.05192E+05  1753.2      73.050     0.20000    
 STRESS PERIOD TIME 1.26230E+09 2.10384E+07 3.50639E+05  14610.      40.000    
         TOTAL TIME 1.26230E+09 2.10384E+07 3.50639E+05  14610.      40.000    
1
 
 SOLVING FOR HEAD 

 NO OUTPUT CONTROL FOR STRESS PERIOD    1   TIME STEP  201
 SOLVING FOR ZETA FOR LAYER     1 ZONE     2
 SOLVING FOR ZETA FOR LAYER     2 ZONE     2
 SOLVING FOR ZETA FOR LAYER     3 ZONE     2
 
 SOLVING FOR HEAD 

 NO OUTPUT CONTROL FOR STRESS PERIOD    1   TIME STEP  202
 SOLVING FOR ZETA FOR LAYER     1 ZONE     2
 SOLVING FOR ZETA FOR LAYER     2 ZONE     2
 SOLVING FOR ZETA FOR LAYER     3 ZONE     2
 
 SOLVING FOR HEAD 

 NO OUTPUT CONTROL FOR STRESS PERIOD    1   TIME STEP  203
 SOLVING FOR ZETA FOR LAYER     1 ZONE     2
 SOLVING FOR ZETA FOR LAYER     2 ZONE     2
 SOLVING FOR ZETA FOR LAYER     3 ZONE     2
 
 SOLVING FOR HEAD 

 NO OUTPUT CONTROL FOR STRESS PERIOD    1   TIME STEP  204
 SOLVING FOR ZETA FOR LAYER     1 ZONE     2
 SOLVING FOR ZETA FOR LAYER     2 ZONE     2
 SOLVING FOR ZETA FOR LAYER     3 ZONE     2
 
 SOLVING FOR HEAD 

 NO OUTPUT CONTROL FOR STRESS PERIOD    1   TIME STEP  205
 SOLVING FOR ZETA FOR LAYER     1 ZONE     2
 SOLVING FOR ZETA FOR LAYER     2 ZONE     2
 SOLVING FOR ZETA FOR LAYER     3 ZONE     2
 
 SOLVING FOR HEAD 

 NO OUTPUT CONTROL FOR STRESS PERIOD    1   TIME STEP  206
 SOLVING FOR ZETA FOR LAYER     1 ZONE     2
 SOLVING FOR ZETA FOR LAYER     2 ZONE     2
 SOLVING FOR ZETA FOR LAYER     3 ZONE     2
 
 SOLVING FOR HEAD 

 NO OUTPUT CONTROL FOR STRESS PERIOD    1   TIME STEP  207
 SOLVING FOR ZETA FOR LAYER     1 ZONE     2
 SOLVING FOR ZETA FOR LAYER     2 ZONE     2
 SOLVING FOR ZETA FOR LAYER     3 ZONE     2
 
 SOLVING FOR HEAD 

 NO OUTPUT CONTROL FOR STRESS PERIOD    1   TIME STEP  208
 SOLVING FOR ZETA FOR LAYER     1 ZONE     2
 SOLVING FOR ZETA FOR LAYER     2 ZONE     2
 SOLVING FOR ZETA FOR LAYER     3 ZONE     2
 
 SOLVING FOR HEAD 

 NO OUTPUT CONTROL FOR STRESS PERIOD    1   TIME STEP  209
 SOLVING FOR ZETA FOR LAYER     1 ZONE     2
 SOLVING FOR ZETA FOR LAYER     2 ZONE     2
 SOLVING FOR ZETA FOR LAYER     3 ZONE     2
 
 SOLVING FOR HEAD 

 NO OUTPUT CONTROL FOR STRESS PERIOD    1   TIME STEP  210
 SOLVING FOR ZETA FOR LAYER     1 ZONE     2
 SOLVING FOR ZETA FOR LAYER     2 ZONE     2
 SOLVING FOR ZETA FOR LAYER     3 ZONE     2
 
 SOLVING FOR HEAD 

 NO OUTPUT CONTROL FOR STRESS PERIOD    1   TIME STEP  211
 SOLVING FOR ZETA FOR LAYER     1 ZONE     2
 SOLVING FOR ZETA FOR LAYER     2 ZONE     2
 SOLVING FOR ZETA FOR LAYER     3 ZONE     2
 
 SOLVING FOR HEAD 

 NO OUTPUT CONTROL FOR STRESS PERIOD    1   TIME STEP  212
 SOLVING FOR ZETA FOR LAYER     1 ZONE     2
 SOLVING FOR ZETA FOR LAYER     2 ZONE     2
 SOLVING FOR ZETA FOR LAYER     3 ZONE     2
 
 SOLVING FOR HEAD 

 NO OUTPUT CONTROL FOR STRESS PERIOD    1   TIME STEP  213
 SOLVING FOR ZETA FOR LAYER     1 ZONE     2
 SOLVING FOR ZETA FOR LAYER     2 ZONE     2
 SOLVING FOR ZETA FOR LAYER     3 ZONE     2
 
 SOLVING FOR HEAD 

 NO OUTPUT CONTROL FOR STRESS PERIOD    1   TIME STEP  214
 SOLVING FOR ZETA FOR LAYER     1 ZONE     2
 SOLVING FOR ZETA FOR LAYER     2 ZONE     2
 SOLVING FOR ZETA FOR LAYER     3 ZONE     2
 
 SOLVING FOR HEAD 

 NO OUTPUT CONTROL FOR STRESS PERIOD    1   TIME STEP  215
 SOLVING FOR ZETA FOR LAYER     1 ZONE     2
 SOLVING FOR ZETA FOR LAYER     2 ZONE     2
 SOLVING FOR ZETA FOR LAYER     3 ZONE     2
 
 SOLVING FOR HEAD 

 NO OUTPUT CONTROL FOR STRESS PERIOD    1   TIME STEP  216
 SOLVING FOR ZETA FOR LAYER     1 ZONE     2
 SOLVING FOR ZETA FOR LAYER     2 ZONE     2
 SOLVING FOR ZETA FOR LAYER     3 ZONE     2
 
 SOLVING FOR HEAD 

 NO OUTPUT CONTROL FOR STRESS PERIOD    1   TIME STEP  217
 SOLVING FOR ZETA FOR LAYER     1 ZONE     2
 SOLVING FOR ZETA FOR LAYER     2 ZONE     2
 SOLVING FOR ZETA FOR LAYER     3 ZONE     2
 
 SOLVING FOR HEAD 

 NO OUTPUT CONTROL FOR STRESS PERIOD    1   TIME STEP  218
 SOLVING FOR ZETA FOR LAYER     1 ZONE     2
 SOLVING FOR ZETA FOR LAYER     2 ZONE     2
 SOLVING FOR ZETA FOR LAYER     3 ZONE     2
 
 SOLVING FOR HEAD 

 NO OUTPUT CONTROL FOR STRESS PERIOD    1   TIME STEP  219
 SOLVING FOR ZETA FOR LAYER     1 ZONE     2
 SOLVING FOR ZETA FOR LAYER     2 ZONE     2
 SOLVING FOR ZETA FOR LAYER     3 ZONE     2
 
 SOLVING FOR HEAD 

 NO OUTPUT CONTROL FOR STRESS PERIOD    1   TIME STEP  220
 SOLVING FOR ZETA FOR LAYER     1 ZONE     2
 SOLVING FOR ZETA FOR LAYER     2 ZONE     2
 SOLVING FOR ZETA FOR LAYER     3 ZONE     2
 
 SOLVING FOR HEAD 

 NO OUTPUT CONTROL FOR STRESS PERIOD    1   TIME STEP  221
 SOLVING FOR ZETA FOR LAYER     1 ZONE     2
 SOLVING FOR ZETA FOR LAYER     2 ZONE     2
 SOLVING FOR ZETA FOR LAYER     3 ZONE     2
 
 SOLVING FOR HEAD 

 NO OUTPUT CONTROL FOR STRESS PERIOD    1   TIME STEP  222
 SOLVING FOR ZETA FOR LAYER     1 ZONE     2
 SOLVING FOR ZETA FOR LAYER     2 ZONE     2
 SOLVING FOR ZETA FOR LAYER     3 ZONE     2
 
 SOLVING FOR HEAD 

 NO OUTPUT CONTROL FOR STRESS PERIOD    1   TIME STEP  223
 SOLVING FOR ZETA FOR LAYER     1 ZONE     2
 SOLVING FOR ZETA FOR LAYER     2 ZONE     2
 SOLVING FOR ZETA FOR LAYER     3 ZONE     2
 
 SOLVING FOR HEAD 

 NO OUTPUT CONTROL FOR STRESS PERIOD    1   TIME STEP  224
 SOLVING FOR ZETA FOR LAYER     1 ZONE     2
 SOLVING FOR ZETA FOR LAYER     2 ZONE     2
 SOLVING FOR ZETA FOR LAYER     3 ZONE     2
 
 SOLVING FOR HEAD 

 NO OUTPUT CONTROL FOR STRESS PERIOD    1   TIME STEP  225
 SOLVING FOR ZETA FOR LAYER     1 ZONE     2
 SOLVING FOR ZETA FOR LAYER     2 ZONE     2
 SOLVING FOR ZETA FOR LAYER     3 ZONE     2
 
 SOLVING FOR HEAD 

 NO OUTPUT CONTROL FOR STRESS PERIOD    1   TIME STEP  226
 SOLVING FOR ZETA FOR LAYER     1 ZONE     2
 SOLVING FOR ZETA FOR LAYER     2 ZONE     2
 SOLVING FOR ZETA FOR LAYER     3 ZONE     2
 
 SOLVING FOR HEAD 

 NO OUTPUT CONTROL FOR STRESS PERIOD    1   TIME STEP  227
 SOLVING FOR ZETA FOR LAYER     1 ZONE     2
 SOLVING FOR ZETA FOR LAYER     2 ZONE     2
 SOLVING FOR ZETA FOR LAYER     3 ZONE     2
 
 SOLVING FOR HEAD 

 NO OUTPUT CONTROL FOR STRESS PERIOD    1   TIME STEP  228
 SOLVING FOR ZETA FOR LAYER     1 ZONE     2
 SOLVING FOR ZETA FOR LAYER     2 ZONE     2
 SOLVING FOR ZETA FOR LAYER     3 ZONE     2
 
 SOLVING FOR HEAD 

 NO OUTPUT CONTROL FOR STRESS PERIOD    1   TIME STEP  229
 SOLVING FOR ZETA FOR LAYER     1 ZONE     2
 SOLVING FOR ZETA FOR LAYER     2 ZONE     2
 SOLVING FOR ZETA FOR LAYER     3 ZONE     2
 
 SOLVING FOR HEAD 

 NO OUTPUT CONTROL FOR STRESS PERIOD    1   TIME STEP  230
 SOLVING FOR ZETA FOR LAYER     1 ZONE     2
 SOLVING FOR ZETA FOR LAYER     2 ZONE     2
 SOLVING FOR ZETA FOR LAYER     3 ZONE     2
 
 SOLVING FOR HEAD 

 NO OUTPUT CONTROL FOR STRESS PERIOD    1   TIME STEP  231
 SOLVING FOR ZETA FOR LAYER     1 ZONE     2
 SOLVING FOR ZETA FOR LAYER     2 ZONE     2
 SOLVING FOR ZETA FOR LAYER     3 ZONE     2
 
 SOLVING FOR HEAD 

 NO OUTPUT CONTROL FOR STRESS PERIOD    1   TIME STEP  232
 SOLVING FOR ZETA FOR LAYER     1 ZONE     2
 SOLVING FOR ZETA FOR LAYER     2 ZONE     2
 SOLVING FOR ZETA FOR LAYER     3 ZONE     2
 
 SOLVING FOR HEAD 

 NO OUTPUT CONTROL FOR STRESS PERIOD    1   TIME STEP  233
 SOLVING FOR ZETA FOR LAYER     1 ZONE     2
 SOLVING FOR ZETA FOR LAYER     2 ZONE     2
 SOLVING FOR ZETA FOR LAYER     3 ZONE     2
 
 SOLVING FOR HEAD 

 NO OUTPUT CONTROL FOR STRESS PERIOD    1   TIME STEP  234
 SOLVING FOR ZETA FOR LAYER     1 ZONE     2
 SOLVING FOR ZETA FOR LAYER     2 ZONE     2
 SOLVING FOR ZETA FOR LAYER     3 ZONE     2
 
 SOLVING FOR HEAD 

 NO OUTPUT CONTROL FOR STRESS PERIOD    1   TIME STEP  235
 SOLVING FOR ZETA FOR LAYER     1 ZONE     2
 SOLVING FOR ZETA FOR LAYER     2 ZONE     2
 SOLVING FOR ZETA FOR LAYER     3 ZONE     2
 
 SOLVING FOR HEAD 

 NO OUTPUT CONTROL FOR STRESS PERIOD    1   TIME STEP  236
 SOLVING FOR ZETA FOR LAYER     1 ZONE     2
 SOLVING FOR ZETA FOR LAYER     2 ZONE     2
 SOLVING FOR ZETA FOR LAYER     3 ZONE     2
 
 SOLVING FOR HEAD 

 NO OUTPUT CONTROL FOR STRESS PERIOD    1   TIME STEP  237
 SOLVING FOR ZETA FOR LAYER     1 ZONE     2
 SOLVING FOR ZETA FOR LAYER     2 ZONE     2
 SOLVING FOR ZETA FOR LAYER     3 ZONE     2
 
 SOLVING FOR HEAD 

 NO OUTPUT CONTROL FOR STRESS PERIOD    1   TIME STEP  238
 SOLVING FOR ZETA FOR LAYER     1 ZONE     2
 SOLVING FOR ZETA FOR LAYER     2 ZONE     2
 SOLVING FOR ZETA FOR LAYER     3 ZONE     2
 
 SOLVING FOR HEAD 

 NO OUTPUT CONTROL FOR STRESS PERIOD    1   TIME STEP  239
 SOLVING FOR ZETA FOR LAYER     1 ZONE     2
 SOLVING FOR ZETA FOR LAYER     2 ZONE     2
 SOLVING FOR ZETA FOR LAYER     3 ZONE     2
 
 SOLVING FOR HEAD 

 NO OUTPUT CONTROL FOR STRESS PERIOD    1   TIME STEP  240
 SOLVING FOR ZETA FOR LAYER     1 ZONE     2
 SOLVING FOR ZETA FOR LAYER     2 ZONE     2
 SOLVING FOR ZETA FOR LAYER     3 ZONE     2
 
 SOLVING FOR HEAD 

 NO OUTPUT CONTROL FOR STRESS PERIOD    1   TIME STEP  241
 SOLVING FOR ZETA FOR LAYER     1 ZONE     2
 SOLVING FOR ZETA FOR LAYER     2 ZONE     2
 SOLVING FOR ZETA FOR LAYER     3 ZONE     2
 
 SOLVING FOR HEAD 

 NO OUTPUT CONTROL FOR STRESS PERIOD    1   TIME STEP  242
 SOLVING FOR ZETA FOR LAYER     1 ZONE     2
 SOLVING FOR ZETA FOR LAYER     2 ZONE     2
 SOLVING FOR ZETA FOR LAYER     3 ZONE     2
 
 SOLVING FOR HEAD 

 NO OUTPUT CONTROL FOR STRESS PERIOD    1   TIME STEP  243
 SOLVING FOR ZETA FOR LAYER     1 ZONE     2
 SOLVING FOR ZETA FOR LAYER     2 ZONE     2
 SOLVING FOR ZETA FOR LAYER     3 ZONE     2
 
 SOLVING FOR HEAD 

 NO OUTPUT CONTROL FOR STRESS PERIOD    1   TIME STEP  244
 SOLVING FOR ZETA FOR LAYER     1 ZONE     2
 SOLVING FOR ZETA FOR LAYER     2 ZONE     2
 SOLVING FOR ZETA FOR LAYER     3 ZONE     2
 
 SOLVING FOR HEAD 

 NO OUTPUT CONTROL FOR STRESS PERIOD    1   TIME STEP  245
 SOLVING FOR ZETA FOR LAYER     1 ZONE     2
 SOLVING FOR ZETA FOR LAYER     2 ZONE     2
 SOLVING FOR ZETA FOR LAYER     3 ZONE     2
 
 SOLVING FOR HEAD 

 NO OUTPUT CONTROL FOR STRESS PERIOD    1   TIME STEP  246
 SOLVING FOR ZETA FOR LAYER     1 ZONE     2
 SOLVING FOR ZETA FOR LAYER     2 ZONE     2
 SOLVING FOR ZETA FOR LAYER     3 ZONE     2
 
 SOLVING FOR HEAD 

 NO OUTPUT CONTROL FOR STRESS PERIOD    1   TIME STEP  247
 SOLVING FOR ZETA FOR LAYER     1 ZONE     2
 SOLVING FOR ZETA FOR LAYER     2 ZONE     2
 SOLVING FOR ZETA FOR LAYER     3 ZONE     2
 
 SOLVING FOR HEAD 

 NO OUTPUT CONTROL FOR STRESS PERIOD    1   TIME STEP  248
 SOLVING FOR ZETA FOR LAYER     1 ZONE     2
 SOLVING FOR ZETA FOR LAYER     2 ZONE     2
 SOLVING FOR ZETA FOR LAYER     3 ZONE     2
 
 SOLVING FOR HEAD 

 NO OUTPUT CONTROL FOR STRESS PERIOD    1   TIME STEP  249
 SOLVING FOR ZETA FOR LAYER     1 ZONE     2
 SOLVING FOR ZETA FOR LAYER     2 ZONE     2
 SOLVING FOR ZETA FOR LAYER     3 ZONE     2
 
 SOLVING FOR HEAD 

 NO OUTPUT CONTROL FOR STRESS PERIOD    1   TIME STEP  250
 SOLVING FOR ZETA FOR LAYER     1 ZONE     2
 SOLVING FOR ZETA FOR LAYER     2 ZONE     2
 SOLVING FOR ZETA FOR LAYER     3 ZONE     2
 
 SOLVING FOR HEAD 

 NO OUTPUT CONTROL FOR STRESS PERIOD    1   TIME STEP  251
 SOLVING FOR ZETA FOR LAYER     1 ZONE     2
 SOLVING FOR ZETA FOR LAYER     2 ZONE     2
 SOLVING FOR ZETA FOR LAYER     3 ZONE     2
 
 SOLVING FOR HEAD 

 NO OUTPUT CONTROL FOR STRESS PERIOD    1   TIME STEP  252
 SOLVING FOR ZETA FOR LAYER     1 ZONE     2
 SOLVING FOR ZETA FOR LAYER     2 ZONE     2
 SOLVING FOR ZETA FOR LAYER     3 ZONE     2
 
 SOLVING FOR HEAD 

 NO OUTPUT CONTROL FOR STRESS PERIOD    1   TIME STEP  253
 SOLVING FOR ZETA FOR LAYER     1 ZONE     2
 SOLVING FOR ZETA FOR LAYER     2 ZONE     2
 SOLVING FOR ZETA FOR LAYER     3 ZONE     2
 
 SOLVING FOR HEAD 

 NO OUTPUT CONTROL FOR STRESS PERIOD    1   TIME STEP  254
 SOLVING FOR ZETA FOR LAYER     1 ZONE     2
 SOLVING FOR ZETA FOR LAYER     2 ZONE     2
 SOLVING FOR ZETA FOR LAYER     3 ZONE     2
 
 SOLVING FOR HEAD 

 NO OUTPUT CONTROL FOR STRESS PERIOD    1   TIME STEP  255
 SOLVING FOR ZETA FOR LAYER     1 ZONE     2
 SOLVING FOR ZETA FOR LAYER     2 ZONE     2
 SOLVING FOR ZETA FOR LAYER     3 ZONE     2
 
 SOLVING FOR HEAD 

 NO OUTPUT CONTROL FOR STRESS PERIOD    1   TIME STEP  256
 SOLVING FOR ZETA FOR LAYER     1 ZONE     2
 SOLVING FOR ZETA FOR LAYER     2 ZONE     2
 SOLVING FOR ZETA FOR LAYER     3 ZONE     2
 
 SOLVING FOR HEAD 

 NO OUTPUT CONTROL FOR STRESS PERIOD    1   TIME STEP  257
 SOLVING FOR ZETA FOR LAYER     1 ZONE     2
 SOLVING FOR ZETA FOR LAYER     2 ZONE     2
 SOLVING FOR ZETA FOR LAYER     3 ZONE     2
 
 SOLVING FOR HEAD 

 NO OUTPUT CONTROL FOR STRESS PERIOD    1   TIME STEP  258
 SOLVING FOR ZETA FOR LAYER     1 ZONE     2
 SOLVING FOR ZETA FOR LAYER     2 ZONE     2
 SOLVING FOR ZETA FOR LAYER     3 ZONE     2
 
 SOLVING FOR HEAD 

 NO OUTPUT CONTROL FOR STRESS PERIOD    1   TIME STEP  259
 SOLVING FOR ZETA FOR LAYER     1 ZONE     2
 SOLVING FOR ZETA FOR LAYER     2 ZONE     2
 SOLVING FOR ZETA FOR LAYER     3 ZONE     2
 
 SOLVING FOR HEAD 

 NO OUTPUT CONTROL FOR STRESS PERIOD    1   TIME STEP  260
 SOLVING FOR ZETA FOR LAYER     1 ZONE     2
 SOLVING FOR ZETA FOR LAYER     2 ZONE     2
 SOLVING FOR ZETA FOR LAYER     3 ZONE     2
 
 SOLVING FOR HEAD 

 NO OUTPUT CONTROL FOR STRESS PERIOD    1   TIME STEP  261
 SOLVING FOR ZETA FOR LAYER     1 ZONE     2
 SOLVING FOR ZETA FOR LAYER     2 ZONE     2
 SOLVING FOR ZETA FOR LAYER     3 ZONE     2
 
 SOLVING FOR HEAD 

 NO OUTPUT CONTROL FOR STRESS PERIOD    1   TIME STEP  262
 SOLVING FOR ZETA FOR LAYER     1 ZONE     2
 SOLVING FOR ZETA FOR LAYER     2 ZONE     2
 SOLVING FOR ZETA FOR LAYER     3 ZONE     2
 
 SOLVING FOR HEAD 

 NO OUTPUT CONTROL FOR STRESS PERIOD    1   TIME STEP  263
 SOLVING FOR ZETA FOR LAYER     1 ZONE     2
 SOLVING FOR ZETA FOR LAYER     2 ZONE     2
 SOLVING FOR ZETA FOR LAYER     3 ZONE     2
 
 SOLVING FOR HEAD 

 NO OUTPUT CONTROL FOR STRESS PERIOD    1   TIME STEP  264
 SOLVING FOR ZETA FOR LAYER     1 ZONE     2
 SOLVING FOR ZETA FOR LAYER     2 ZONE     2
 SOLVING FOR ZETA FOR LAYER     3 ZONE     2
 
 SOLVING FOR HEAD 

 NO OUTPUT CONTROL FOR STRESS PERIOD    1   TIME STEP  265
 SOLVING FOR ZETA FOR LAYER     1 ZONE     2
 SOLVING FOR ZETA FOR LAYER     2 ZONE     2
 SOLVING FOR ZETA FOR LAYER     3 ZONE     2
 
 SOLVING FOR HEAD 

 NO OUTPUT CONTROL FOR STRESS PERIOD    1   TIME STEP  266
 SOLVING FOR ZETA FOR LAYER     1 ZONE     2
 SOLVING FOR ZETA FOR LAYER     2 ZONE     2
 SOLVING FOR ZETA FOR LAYER     3 ZONE     2
 
 SOLVING FOR HEAD 

 NO OUTPUT CONTROL FOR STRESS PERIOD    1   TIME STEP  267
 SOLVING FOR ZETA FOR LAYER     1 ZONE     2
 SOLVING FOR ZETA FOR LAYER     2 ZONE     2
 SOLVING FOR ZETA FOR LAYER     3 ZONE     2
 
 SOLVING FOR HEAD 

 NO OUTPUT CONTROL FOR STRESS PERIOD    1   TIME STEP  268
 SOLVING FOR ZETA FOR LAYER     1 ZONE     2
 SOLVING FOR ZETA FOR LAYER     2 ZONE     2
 SOLVING FOR ZETA FOR LAYER     3 ZONE     2
 
 SOLVING FOR HEAD 

 NO OUTPUT CONTROL FOR STRESS PERIOD    1   TIME STEP  269
 SOLVING FOR ZETA FOR LAYER     1 ZONE     2
 SOLVING FOR ZETA FOR LAYER     2 ZONE     2
 SOLVING FOR ZETA FOR LAYER     3 ZONE     2
 
 SOLVING FOR HEAD 

 NO OUTPUT CONTROL FOR STRESS PERIOD    1   TIME STEP  270
 SOLVING FOR ZETA FOR LAYER     1 ZONE     2
 SOLVING FOR ZETA FOR LAYER     2 ZONE     2
 SOLVING FOR ZETA FOR LAYER     3 ZONE     2
 
 SOLVING FOR HEAD 

 NO OUTPUT CONTROL FOR STRESS PERIOD    1   TIME STEP  271
 SOLVING FOR ZETA FOR LAYER     1 ZONE     2
 SOLVING FOR ZETA FOR LAYER     2 ZONE     2
 SOLVING FOR ZETA FOR LAYER     3 ZONE     2
 
 SOLVING FOR HEAD 

 NO OUTPUT CONTROL FOR STRESS PERIOD    1   TIME STEP  272
 SOLVING FOR ZETA FOR LAYER     1 ZONE     2
 SOLVING FOR ZETA FOR LAYER     2 ZONE     2
 SOLVING FOR ZETA FOR LAYER     3 ZONE     2
 
 SOLVING FOR HEAD 

 NO OUTPUT CONTROL FOR STRESS PERIOD    1   TIME STEP  273
 SOLVING FOR ZETA FOR LAYER     1 ZONE     2
 SOLVING FOR ZETA FOR LAYER     2 ZONE     2
 SOLVING FOR ZETA FOR LAYER     3 ZONE     2
 
 SOLVING FOR HEAD 

 NO OUTPUT CONTROL FOR STRESS PERIOD    1   TIME STEP  274
 SOLVING FOR ZETA FOR LAYER     1 ZONE     2
 SOLVING FOR ZETA FOR LAYER     2 ZONE     2
 SOLVING FOR ZETA FOR LAYER     3 ZONE     2
 
 SOLVING FOR HEAD 

 NO OUTPUT CONTROL FOR STRESS PERIOD    1   TIME STEP  275
 SOLVING FOR ZETA FOR LAYER     1 ZONE     2
 SOLVING FOR ZETA FOR LAYER     2 ZONE     2
 SOLVING FOR ZETA FOR LAYER     3 ZONE     2
 
 SOLVING FOR HEAD 

 NO OUTPUT CONTROL FOR STRESS PERIOD    1   TIME STEP  276
 SOLVING FOR ZETA FOR LAYER     1 ZONE     2
 SOLVING FOR ZETA FOR LAYER     2 ZONE     2
 SOLVING FOR ZETA FOR LAYER     3 ZONE     2
 
 SOLVING FOR HEAD 

 NO OUTPUT CONTROL FOR STRESS PERIOD    1   TIME STEP  277
 SOLVING FOR ZETA FOR LAYER     1 ZONE     2
 SOLVING FOR ZETA FOR LAYER     2 ZONE     2
 SOLVING FOR ZETA FOR LAYER     3 ZONE     2
 
 SOLVING FOR HEAD 

 NO OUTPUT CONTROL FOR STRESS PERIOD    1   TIME STEP  278
 SOLVING FOR ZETA FOR LAYER     1 ZONE     2
 SOLVING FOR ZETA FOR LAYER     2 ZONE     2
 SOLVING FOR ZETA FOR LAYER     3 ZONE     2
 
 SOLVING FOR HEAD 

 NO OUTPUT CONTROL FOR STRESS PERIOD    1   TIME STEP  279
 SOLVING FOR ZETA FOR LAYER     1 ZONE     2
 SOLVING FOR ZETA FOR LAYER     2 ZONE     2
 SOLVING FOR ZETA FOR LAYER     3 ZONE     2
 
 SOLVING FOR HEAD 

 NO OUTPUT CONTROL FOR STRESS PERIOD    1   TIME STEP  280
 SOLVING FOR ZETA FOR LAYER     1 ZONE     2
 SOLVING FOR ZETA FOR LAYER     2 ZONE     2
 SOLVING FOR ZETA FOR LAYER     3 ZONE     2
 
 SOLVING FOR HEAD 

 NO OUTPUT CONTROL FOR STRESS PERIOD    1   TIME STEP  281
 SOLVING FOR ZETA FOR LAYER     1 ZONE     2
 SOLVING FOR ZETA FOR LAYER     2 ZONE     2
 SOLVING FOR ZETA FOR LAYER     3 ZONE     2
 
 SOLVING FOR HEAD 

 NO OUTPUT CONTROL FOR STRESS PERIOD    1   TIME STEP  282
 SOLVING FOR ZETA FOR LAYER     1 ZONE     2
 SOLVING FOR ZETA FOR LAYER     2 ZONE     2
 SOLVING FOR ZETA FOR LAYER     3 ZONE     2
 
 SOLVING FOR HEAD 

 NO OUTPUT CONTROL FOR STRESS PERIOD    1   TIME STEP  283
 SOLVING FOR ZETA FOR LAYER     1 ZONE     2
 SOLVING FOR ZETA FOR LAYER     2 ZONE     2
 SOLVING FOR ZETA FOR LAYER     3 ZONE     2
 
 SOLVING FOR HEAD 

 NO OUTPUT CONTROL FOR STRESS PERIOD    1   TIME STEP  284
 SOLVING FOR ZETA FOR LAYER     1 ZONE     2
 SOLVING FOR ZETA FOR LAYER     2 ZONE     2
 SOLVING FOR ZETA FOR LAYER     3 ZONE     2
 
 SOLVING FOR HEAD 

 NO OUTPUT CONTROL FOR STRESS PERIOD    1   TIME STEP  285
 SOLVING FOR ZETA FOR LAYER     1 ZONE     2
 SOLVING FOR ZETA FOR LAYER     2 ZONE     2
 SOLVING FOR ZETA FOR LAYER     3 ZONE     2
 
 SOLVING FOR HEAD 

 NO OUTPUT CONTROL FOR STRESS PERIOD    1   TIME STEP  286
 SOLVING FOR ZETA FOR LAYER     1 ZONE     2
 SOLVING FOR ZETA FOR LAYER     2 ZONE     2
 SOLVING FOR ZETA FOR LAYER     3 ZONE     2
 
 SOLVING FOR HEAD 

 NO OUTPUT CONTROL FOR STRESS PERIOD    1   TIME STEP  287
 SOLVING FOR ZETA FOR LAYER     1 ZONE     2
 SOLVING FOR ZETA FOR LAYER     2 ZONE     2
 SOLVING FOR ZETA FOR LAYER     3 ZONE     2
 
 SOLVING FOR HEAD 

 NO OUTPUT CONTROL FOR STRESS PERIOD    1   TIME STEP  288
 SOLVING FOR ZETA FOR LAYER     1 ZONE     2
 SOLVING FOR ZETA FOR LAYER     2 ZONE     2
 SOLVING FOR ZETA FOR LAYER     3 ZONE     2
 
 SOLVING FOR HEAD 

 NO OUTPUT CONTROL FOR STRESS PERIOD    1   TIME STEP  289
 SOLVING FOR ZETA FOR LAYER     1 ZONE     2
 SOLVING FOR ZETA FOR LAYER     2 ZONE     2
 SOLVING FOR ZETA FOR LAYER     3 ZONE     2
 
 SOLVING FOR HEAD 

 NO OUTPUT CONTROL FOR STRESS PERIOD    1   TIME STEP  290
 SOLVING FOR ZETA FOR LAYER     1 ZONE     2
 SOLVING FOR ZETA FOR LAYER     2 ZONE     2
 SOLVING FOR ZETA FOR LAYER     3 ZONE     2
 
 SOLVING FOR HEAD 

 NO OUTPUT CONTROL FOR STRESS PERIOD    1   TIME STEP  291
 SOLVING FOR ZETA FOR LAYER     1 ZONE     2
 SOLVING FOR ZETA FOR LAYER     2 ZONE     2
 SOLVING FOR ZETA FOR LAYER     3 ZONE     2
 
 SOLVING FOR HEAD 

 NO OUTPUT CONTROL FOR STRESS PERIOD    1   TIME STEP  292
 SOLVING FOR ZETA FOR LAYER     1 ZONE     2
 SOLVING FOR ZETA FOR LAYER     2 ZONE     2
 SOLVING FOR ZETA FOR LAYER     3 ZONE     2
 
 SOLVING FOR HEAD 

 NO OUTPUT CONTROL FOR STRESS PERIOD    1   TIME STEP  293
 SOLVING FOR ZETA FOR LAYER     1 ZONE     2
 SOLVING FOR ZETA FOR LAYER     2 ZONE     2
 SOLVING FOR ZETA FOR LAYER     3 ZONE     2
 
 SOLVING FOR HEAD 

 NO OUTPUT CONTROL FOR STRESS PERIOD    1   TIME STEP  294
 SOLVING FOR ZETA FOR LAYER     1 ZONE     2
 SOLVING FOR ZETA FOR LAYER     2 ZONE     2
 SOLVING FOR ZETA FOR LAYER     3 ZONE     2
 
 SOLVING FOR HEAD 

 NO OUTPUT CONTROL FOR STRESS PERIOD    1   TIME STEP  295
 SOLVING FOR ZETA FOR LAYER     1 ZONE     2
 SOLVING FOR ZETA FOR LAYER     2 ZONE     2
 SOLVING FOR ZETA FOR LAYER     3 ZONE     2
 
 SOLVING FOR HEAD 

 NO OUTPUT CONTROL FOR STRESS PERIOD    1   TIME STEP  296
 SOLVING FOR ZETA FOR LAYER     1 ZONE     2
 SOLVING FOR ZETA FOR LAYER     2 ZONE     2
 SOLVING FOR ZETA FOR LAYER     3 ZONE     2
 
 SOLVING FOR HEAD 

 NO OUTPUT CONTROL FOR STRESS PERIOD    1   TIME STEP  297
 SOLVING FOR ZETA FOR LAYER     1 ZONE     2
 SOLVING FOR ZETA FOR LAYER     2 ZONE     2
 SOLVING FOR ZETA FOR LAYER     3 ZONE     2
 
 SOLVING FOR HEAD 

 NO OUTPUT CONTROL FOR STRESS PERIOD    1   TIME STEP  298
 SOLVING FOR ZETA FOR LAYER     1 ZONE     2
 SOLVING FOR ZETA FOR LAYER     2 ZONE     2
 SOLVING FOR ZETA FOR LAYER     3 ZONE     2
 
 SOLVING FOR HEAD 

 NO OUTPUT CONTROL FOR STRESS PERIOD    1   TIME STEP  299
 SOLVING FOR ZETA FOR LAYER     1 ZONE     2
 SOLVING FOR ZETA FOR LAYER     2 ZONE     2
 SOLVING FOR ZETA FOR LAYER     3 ZONE     2
 
 SOLVING FOR HEAD 

 OUTPUT CONTROL FOR STRESS PERIOD    1   TIME STEP  300
    PRINT BUDGET
    SAVE HEAD FOR ALL LAYERS
 SOLVING FOR ZETA FOR LAYER     1 ZONE     2
 SOLVING FOR ZETA FOR LAYER     2 ZONE     2
 SOLVING FOR ZETA FOR LAYER     3 ZONE     2
 UBUDSV SAVING "      ZETASRF  1" ON UNIT 55 AT TIME STEP300, STRESS PERIOD    1


                      VOLUMETRIC SWI ZONE BUDGET FOR ENTIRE MODEL
                     AT END OF TIME STEP  300 IN STRESS PERIOD   1
                                      ZONE     1
  -----------------------------------------------------------------------------------

        CUMULATIVE VOLUMES      L**3       RATES FOR THIS TIME STEP      L**3/T
        ------------------                 ------------------------

              IN:                                      IN:
              ---                                      ---
             BOUNDARIES =   126414104.0000            BOUNDARIES =        5724.0503
          CONSTANT HEAD =           0.0000         CONSTANT HEAD =           0.0000
            ZONE CHANGE =     2085995.2500           ZONE CHANGE =          83.8611
       ZONE CHG TIP/TOE =    48046104.0000      ZONE CHG TIP/TOE =        1123.5029
            ZONE MIXING =       68235.9219           ZONE MIXING =           1.1882

               TOTAL IN =   176614448.0000              TOTAL IN =        6932.6025

             OUT:                                     OUT:
             ----                                     ----
             BOUNDARIES =    75935880.0000            BOUNDARIES =        4889.9395
          CONSTANT HEAD =           0.0000         CONSTANT HEAD =           0.0000
            ZONE CHANGE =    50303300.0000           ZONE CHANGE =        1164.6039
       ZONE CHG TIP/TOE =      171868.9062      ZONE CHG TIP/TOE =           2.0260
            ZONE MIXING =    17087048.0000           ZONE MIXING =         604.7948

              TOTAL OUT =   143498112.0000             TOTAL OUT =        6661.3643

               IN - OUT =    33116336.0000              IN - OUT =         271.2383

    PERCENT DISCREPANCY =          20.69     PERCENT DISCREPANCY =           3.99



                      VOLUMETRIC SWI ZONE BUDGET FOR ENTIRE MODEL
                     AT END OF TIME STEP  300 IN STRESS PERIOD   1
                                      ZONE     2
  -----------------------------------------------------------------------------------

        CUMULATIVE VOLUMES      L**3       RATES FOR THIS TIME STEP      L**3/T
        ------------------                 ------------------------

              IN:                                      IN:
              ---                                      ---
             BOUNDARIES =    19105490.0000            BOUNDARIES =         971.4189
          CONSTANT HEAD =           0.0000         CONSTANT HEAD =           0.0000
            ZONE CHANGE =     2226911.0000           ZONE CHANGE =          41.6384
       ZONE CHG TIP/TOE =    18970668.0000      ZONE CHG TIP/TOE =         886.5453
            ZONE MIXING =    17087048.0000           ZONE MIXING =         604.7948

               TOTAL IN =    57390116.0000              TOTAL IN =        2504.3975

             OUT:                                     OUT:
             ----                                     ----
             BOUNDARIES =    69660408.0000            BOUNDARIES =        1808.9966
          CONSTANT HEAD =           0.0000         CONSTANT HEAD =           0.0000
            ZONE CHANGE =    20874824.0000           ZONE CHANGE =         964.4977
       ZONE CHG TIP/TOE =       33488.4883      ZONE CHG TIP/TOE =           0.7447
            ZONE MIXING =       68235.9219           ZONE MIXING =           1.1882

              TOTAL OUT =    90636952.0000             TOTAL OUT =        2775.4270

               IN - OUT =   -33246836.0000              IN - OUT =        -271.0295

    PERCENT DISCREPANCY =         -44.92     PERCENT DISCREPANCY =         -10.27


 HEAD WILL BE SAVED ON UNIT   51 AT END OF TIME STEP  300, STRESS PERIOD    1
1
  VOLUMETRIC BUDGET FOR ENTIRE MODEL AT END OF TIME STEP  300, STRESS PERIOD   1
  ------------------------------------------------------------------------------

     CUMULATIVE VOLUMES      L**3       RATES FOR THIS TIME STEP      L**3/T
     ------------------                 ------------------------

           IN:                                      IN:
           ---                                      ---
             STORAGE =           0.0000               STORAGE =           0.0000
       CONSTANT HEAD =           0.0000         CONSTANT HEAD =           0.0000
          SWIADDTOCH =           0.0000            SWIADDTOCH =           0.0000
               WELLS =           0.0000                 WELLS =           0.0000
     HEAD DEP BOUNDS =    17059090.0000       HEAD DEP BOUNDS =         833.7064
            RECHARGE =   128460160.0000              RECHARGE =        5861.7627

            TOTAL IN =   145519248.0000              TOTAL IN =        6695.4692

          OUT:                                     OUT:
          ----                                     ----
             STORAGE =           0.0000               STORAGE =           0.0000
       CONSTANT HEAD =           0.0000         CONSTANT HEAD =           0.0000
          SWIADDTOCH =           0.0000            SWIADDTOCH =           0.0000
               WELLS =           0.0000                 WELLS =           0.0000
     HEAD DEP BOUNDS =   145596224.0000       HEAD DEP BOUNDS =        6698.9360
            RECHARGE =           0.0000              RECHARGE =           0.0000

           TOTAL OUT =   145596224.0000             TOTAL OUT =        6698.9360

            IN - OUT =      -76976.0000              IN - OUT =          -3.4668

 PERCENT DISCREPANCY =          -0.05     PERCENT DISCREPANCY =          -0.05






         TIME SUMMARY AT END OF TIME STEP  300 IN STRESS PERIOD    1
                    SECONDS     MINUTES      HOURS       DAYS        YEARS
                    -----------------------------------------------------------
   TIME STEP LENGTH 6.31152E+06 1.05192E+05  1753.2      73.050     0.20000    
 STRESS PERIOD TIME 1.89346E+09 3.15576E+07 5.25961E+05  21915.      60.000    
         TOTAL TIME 1.89346E+09 3.15576E+07 5.25961E+05  21915.      60.000    
1
 
 SOLVING FOR HEAD 

 NO OUTPUT CONTROL FOR STRESS PERIOD    1   TIME STEP  301
 SOLVING FOR ZETA FOR LAYER     1 ZONE     2
 SOLVING FOR ZETA FOR LAYER     2 ZONE     2
 SOLVING FOR ZETA FOR LAYER     3 ZONE     2
 
 SOLVING FOR HEAD 

 NO OUTPUT CONTROL FOR STRESS PERIOD    1   TIME STEP  302
 SOLVING FOR ZETA FOR LAYER     1 ZONE     2
 SOLVING FOR ZETA FOR LAYER     2 ZONE     2
 SOLVING FOR ZETA FOR LAYER     3 ZONE     2
 
 SOLVING FOR HEAD 

 NO OUTPUT CONTROL FOR STRESS PERIOD    1   TIME STEP  303
 SOLVING FOR ZETA FOR LAYER     1 ZONE     2
 SOLVING FOR ZETA FOR LAYER     2 ZONE     2
 SOLVING FOR ZETA FOR LAYER     3 ZONE     2
 
 SOLVING FOR HEAD 

 NO OUTPUT CONTROL FOR STRESS PERIOD    1   TIME STEP  304
 SOLVING FOR ZETA FOR LAYER     1 ZONE     2
 SOLVING FOR ZETA FOR LAYER     2 ZONE     2
 SOLVING FOR ZETA FOR LAYER     3 ZONE     2
 
 SOLVING FOR HEAD 

 NO OUTPUT CONTROL FOR STRESS PERIOD    1   TIME STEP  305
 SOLVING FOR ZETA FOR LAYER     1 ZONE     2
 SOLVING FOR ZETA FOR LAYER     2 ZONE     2
 SOLVING FOR ZETA FOR LAYER     3 ZONE     2
 
 SOLVING FOR HEAD 

 NO OUTPUT CONTROL FOR STRESS PERIOD    1   TIME STEP  306
 SOLVING FOR ZETA FOR LAYER     1 ZONE     2
 SOLVING FOR ZETA FOR LAYER     2 ZONE     2
 SOLVING FOR ZETA FOR LAYER     3 ZONE     2
 
 SOLVING FOR HEAD 

 NO OUTPUT CONTROL FOR STRESS PERIOD    1   TIME STEP  307
 SOLVING FOR ZETA FOR LAYER     1 ZONE     2
 SOLVING FOR ZETA FOR LAYER     2 ZONE     2
 SOLVING FOR ZETA FOR LAYER     3 ZONE     2
 
 SOLVING FOR HEAD 

 NO OUTPUT CONTROL FOR STRESS PERIOD    1   TIME STEP  308
 SOLVING FOR ZETA FOR LAYER     1 ZONE     2
 SOLVING FOR ZETA FOR LAYER     2 ZONE     2
 SOLVING FOR ZETA FOR LAYER     3 ZONE     2
 
 SOLVING FOR HEAD 

 NO OUTPUT CONTROL FOR STRESS PERIOD    1   TIME STEP  309
 SOLVING FOR ZETA FOR LAYER     1 ZONE     2
 SOLVING FOR ZETA FOR LAYER     2 ZONE     2
 SOLVING FOR ZETA FOR LAYER     3 ZONE     2
 
 SOLVING FOR HEAD 

 NO OUTPUT CONTROL FOR STRESS PERIOD    1   TIME STEP  310
 SOLVING FOR ZETA FOR LAYER     1 ZONE     2
 SOLVING FOR ZETA FOR LAYER     2 ZONE     2
 SOLVING FOR ZETA FOR LAYER     3 ZONE     2
 
 SOLVING FOR HEAD 

 NO OUTPUT CONTROL FOR STRESS PERIOD    1   TIME STEP  311
 SOLVING FOR ZETA FOR LAYER     1 ZONE     2
 SOLVING FOR ZETA FOR LAYER     2 ZONE     2
 SOLVING FOR ZETA FOR LAYER     3 ZONE     2
 
 SOLVING FOR HEAD 

 NO OUTPUT CONTROL FOR STRESS PERIOD    1   TIME STEP  312
 SOLVING FOR ZETA FOR LAYER     1 ZONE     2
 SOLVING FOR ZETA FOR LAYER     2 ZONE     2
 SOLVING FOR ZETA FOR LAYER     3 ZONE     2
 
 SOLVING FOR HEAD 

 NO OUTPUT CONTROL FOR STRESS PERIOD    1   TIME STEP  313
 SOLVING FOR ZETA FOR LAYER     1 ZONE     2
 SOLVING FOR ZETA FOR LAYER     2 ZONE     2
 SOLVING FOR ZETA FOR LAYER     3 ZONE     2
 
 SOLVING FOR HEAD 

 NO OUTPUT CONTROL FOR STRESS PERIOD    1   TIME STEP  314
 SOLVING FOR ZETA FOR LAYER     1 ZONE     2
 SOLVING FOR ZETA FOR LAYER     2 ZONE     2
 SOLVING FOR ZETA FOR LAYER     3 ZONE     2
 
 SOLVING FOR HEAD 

 NO OUTPUT CONTROL FOR STRESS PERIOD    1   TIME STEP  315
 SOLVING FOR ZETA FOR LAYER     1 ZONE     2
 SOLVING FOR ZETA FOR LAYER     2 ZONE     2
 SOLVING FOR ZETA FOR LAYER     3 ZONE     2
 
 SOLVING FOR HEAD 

 NO OUTPUT CONTROL FOR STRESS PERIOD    1   TIME STEP  316
 SOLVING FOR ZETA FOR LAYER     1 ZONE     2
 SOLVING FOR ZETA FOR LAYER     2 ZONE     2
 SOLVING FOR ZETA FOR LAYER     3 ZONE     2
 
 SOLVING FOR HEAD 

 NO OUTPUT CONTROL FOR STRESS PERIOD    1   TIME STEP  317
 SOLVING FOR ZETA FOR LAYER     1 ZONE     2
 SOLVING FOR ZETA FOR LAYER     2 ZONE     2
 SOLVING FOR ZETA FOR LAYER     3 ZONE     2
 
 SOLVING FOR HEAD 

 NO OUTPUT CONTROL FOR STRESS PERIOD    1   TIME STEP  318
 SOLVING FOR ZETA FOR LAYER     1 ZONE     2
 SOLVING FOR ZETA FOR LAYER     2 ZONE     2
 SOLVING FOR ZETA FOR LAYER     3 ZONE     2
 
 SOLVING FOR HEAD 

 NO OUTPUT CONTROL FOR STRESS PERIOD    1   TIME STEP  319
 SOLVING FOR ZETA FOR LAYER     1 ZONE     2
 SOLVING FOR ZETA FOR LAYER     2 ZONE     2
 SOLVING FOR ZETA FOR LAYER     3 ZONE     2
 
 SOLVING FOR HEAD 

 NO OUTPUT CONTROL FOR STRESS PERIOD    1   TIME STEP  320
 SOLVING FOR ZETA FOR LAYER     1 ZONE     2
 SOLVING FOR ZETA FOR LAYER     2 ZONE     2
 SOLVING FOR ZETA FOR LAYER     3 ZONE     2
 
 SOLVING FOR HEAD 

 NO OUTPUT CONTROL FOR STRESS PERIOD    1   TIME STEP  321
 SOLVING FOR ZETA FOR LAYER     1 ZONE     2
 SOLVING FOR ZETA FOR LAYER     2 ZONE     2
 SOLVING FOR ZETA FOR LAYER     3 ZONE     2
 
 SOLVING FOR HEAD 

 NO OUTPUT CONTROL FOR STRESS PERIOD    1   TIME STEP  322
 SOLVING FOR ZETA FOR LAYER     1 ZONE     2
 SOLVING FOR ZETA FOR LAYER     2 ZONE     2
 SOLVING FOR ZETA FOR LAYER     3 ZONE     2
 
 SOLVING FOR HEAD 

 NO OUTPUT CONTROL FOR STRESS PERIOD    1   TIME STEP  323
 SOLVING FOR ZETA FOR LAYER     1 ZONE     2
 SOLVING FOR ZETA FOR LAYER     2 ZONE     2
 SOLVING FOR ZETA FOR LAYER     3 ZONE     2
 
 SOLVING FOR HEAD 

 NO OUTPUT CONTROL FOR STRESS PERIOD    1   TIME STEP  324
 SOLVING FOR ZETA FOR LAYER     1 ZONE     2
 SOLVING FOR ZETA FOR LAYER     2 ZONE     2
 SOLVING FOR ZETA FOR LAYER     3 ZONE     2
 
 SOLVING FOR HEAD 

 NO OUTPUT CONTROL FOR STRESS PERIOD    1   TIME STEP  325
 SOLVING FOR ZETA FOR LAYER     1 ZONE     2
 SOLVING FOR ZETA FOR LAYER     2 ZONE     2
 SOLVING FOR ZETA FOR LAYER     3 ZONE     2
 
 SOLVING FOR HEAD 

 NO OUTPUT CONTROL FOR STRESS PERIOD    1   TIME STEP  326
 SOLVING FOR ZETA FOR LAYER     1 ZONE     2
 SOLVING FOR ZETA FOR LAYER     2 ZONE     2
 SOLVING FOR ZETA FOR LAYER     3 ZONE     2
 
 SOLVING FOR HEAD 

 NO OUTPUT CONTROL FOR STRESS PERIOD    1   TIME STEP  327
 SOLVING FOR ZETA FOR LAYER     1 ZONE     2
 SOLVING FOR ZETA FOR LAYER     2 ZONE     2
 SOLVING FOR ZETA FOR LAYER     3 ZONE     2
 
 SOLVING FOR HEAD 

 NO OUTPUT CONTROL FOR STRESS PERIOD    1   TIME STEP  328
 SOLVING FOR ZETA FOR LAYER     1 ZONE     2
 SOLVING FOR ZETA FOR LAYER     2 ZONE     2
 SOLVING FOR ZETA FOR LAYER     3 ZONE     2
 
 SOLVING FOR HEAD 

 NO OUTPUT CONTROL FOR STRESS PERIOD    1   TIME STEP  329
 SOLVING FOR ZETA FOR LAYER     1 ZONE     2
 SOLVING FOR ZETA FOR LAYER     2 ZONE     2
 SOLVING FOR ZETA FOR LAYER     3 ZONE     2
 
 SOLVING FOR HEAD 

 NO OUTPUT CONTROL FOR STRESS PERIOD    1   TIME STEP  330
 SOLVING FOR ZETA FOR LAYER     1 ZONE     2
 SOLVING FOR ZETA FOR LAYER     2 ZONE     2
 SOLVING FOR ZETA FOR LAYER     3 ZONE     2
 
 SOLVING FOR HEAD 

 NO OUTPUT CONTROL FOR STRESS PERIOD    1   TIME STEP  331
 SOLVING FOR ZETA FOR LAYER     1 ZONE     2
 SOLVING FOR ZETA FOR LAYER     2 ZONE     2
 SOLVING FOR ZETA FOR LAYER     3 ZONE     2
 
 SOLVING FOR HEAD 

 NO OUTPUT CONTROL FOR STRESS PERIOD    1   TIME STEP  332
 SOLVING FOR ZETA FOR LAYER     1 ZONE     2
 SOLVING FOR ZETA FOR LAYER     2 ZONE     2
 SOLVING FOR ZETA FOR LAYER     3 ZONE     2
 
 SOLVING FOR HEAD 

 NO OUTPUT CONTROL FOR STRESS PERIOD    1   TIME STEP  333
 SOLVING FOR ZETA FOR LAYER     1 ZONE     2
 SOLVING FOR ZETA FOR LAYER     2 ZONE     2
 SOLVING FOR ZETA FOR LAYER     3 ZONE     2
 
 SOLVING FOR HEAD 

 NO OUTPUT CONTROL FOR STRESS PERIOD    1   TIME STEP  334
 SOLVING FOR ZETA FOR LAYER     1 ZONE     2
 SOLVING FOR ZETA FOR LAYER     2 ZONE     2
 SOLVING FOR ZETA FOR LAYER     3 ZONE     2
 
 SOLVING FOR HEAD 

 NO OUTPUT CONTROL FOR STRESS PERIOD    1   TIME STEP  335
 SOLVING FOR ZETA FOR LAYER     1 ZONE     2
 SOLVING FOR ZETA FOR LAYER     2 ZONE     2
 SOLVING FOR ZETA FOR LAYER     3 ZONE     2
 
 SOLVING FOR HEAD 

 NO OUTPUT CONTROL FOR STRESS PERIOD    1   TIME STEP  336
 SOLVING FOR ZETA FOR LAYER     1 ZONE     2
 SOLVING FOR ZETA FOR LAYER     2 ZONE     2
 SOLVING FOR ZETA FOR LAYER     3 ZONE     2
 
 SOLVING FOR HEAD 

 NO OUTPUT CONTROL FOR STRESS PERIOD    1   TIME STEP  337
 SOLVING FOR ZETA FOR LAYER     1 ZONE     2
 SOLVING FOR ZETA FOR LAYER     2 ZONE     2
 SOLVING FOR ZETA FOR LAYER     3 ZONE     2
 
 SOLVING FOR HEAD 

 NO OUTPUT CONTROL FOR STRESS PERIOD    1   TIME STEP  338
 SOLVING FOR ZETA FOR LAYER     1 ZONE     2
 SOLVING FOR ZETA FOR LAYER     2 ZONE     2
 SOLVING FOR ZETA FOR LAYER     3 ZONE     2
 
 SOLVING FOR HEAD 

 NO OUTPUT CONTROL FOR STRESS PERIOD    1   TIME STEP  339
 SOLVING FOR ZETA FOR LAYER     1 ZONE     2
 SOLVING FOR ZETA FOR LAYER     2 ZONE     2
 SOLVING FOR ZETA FOR LAYER     3 ZONE     2
 
 SOLVING FOR HEAD 

 NO OUTPUT CONTROL FOR STRESS PERIOD    1   TIME STEP  340
 SOLVING FOR ZETA FOR LAYER     1 ZONE     2
 SOLVING FOR ZETA FOR LAYER     2 ZONE     2
 SOLVING FOR ZETA FOR LAYER     3 ZONE     2
 
 SOLVING FOR HEAD 

 NO OUTPUT CONTROL FOR STRESS PERIOD    1   TIME STEP  341
 SOLVING FOR ZETA FOR LAYER     1 ZONE     2
 SOLVING FOR ZETA FOR LAYER     2 ZONE     2
 SOLVING FOR ZETA FOR LAYER     3 ZONE     2
 
 SOLVING FOR HEAD 

 NO OUTPUT CONTROL FOR STRESS PERIOD    1   TIME STEP  342
 SOLVING FOR ZETA FOR LAYER     1 ZONE     2
 SOLVING FOR ZETA FOR LAYER     2 ZONE     2
 SOLVING FOR ZETA FOR LAYER     3 ZONE     2
 
 SOLVING FOR HEAD 

 NO OUTPUT CONTROL FOR STRESS PERIOD    1   TIME STEP  343
 SOLVING FOR ZETA FOR LAYER     1 ZONE     2
 SOLVING FOR ZETA FOR LAYER     2 ZONE     2
 SOLVING FOR ZETA FOR LAYER     3 ZONE     2
 
 SOLVING FOR HEAD 

 NO OUTPUT CONTROL FOR STRESS PERIOD    1   TIME STEP  344
 SOLVING FOR ZETA FOR LAYER     1 ZONE     2
 SOLVING FOR ZETA FOR LAYER     2 ZONE     2
 SOLVING FOR ZETA FOR LAYER     3 ZONE     2
 
 SOLVING FOR HEAD 

 NO OUTPUT CONTROL FOR STRESS PERIOD    1   TIME STEP  345
 SOLVING FOR ZETA FOR LAYER     1 ZONE     2
 SOLVING FOR ZETA FOR LAYER     2 ZONE     2
 SOLVING FOR ZETA FOR LAYER     3 ZONE     2
 
 SOLVING FOR HEAD 

 NO OUTPUT CONTROL FOR STRESS PERIOD    1   TIME STEP  346
 SOLVING FOR ZETA FOR LAYER     1 ZONE     2
 SOLVING FOR ZETA FOR LAYER     2 ZONE     2
 SOLVING FOR ZETA FOR LAYER     3 ZONE     2
 
 SOLVING FOR HEAD 

 NO OUTPUT CONTROL FOR STRESS PERIOD    1   TIME STEP  347
 SOLVING FOR ZETA FOR LAYER     1 ZONE     2
 SOLVING FOR ZETA FOR LAYER     2 ZONE     2
 SOLVING FOR ZETA FOR LAYER     3 ZONE     2
 
 SOLVING FOR HEAD 

 NO OUTPUT CONTROL FOR STRESS PERIOD    1   TIME STEP  348
 SOLVING FOR ZETA FOR LAYER     1 ZONE     2
 SOLVING FOR ZETA FOR LAYER     2 ZONE     2
 SOLVING FOR ZETA FOR LAYER     3 ZONE     2
 
 SOLVING FOR HEAD 

 NO OUTPUT CONTROL FOR STRESS PERIOD    1   TIME STEP  349
 SOLVING FOR ZETA FOR LAYER     1 ZONE     2
 SOLVING FOR ZETA FOR LAYER     2 ZONE     2
 SOLVING FOR ZETA FOR LAYER     3 ZONE     2
 
 SOLVING FOR HEAD 

 NO OUTPUT CONTROL FOR STRESS PERIOD    1   TIME STEP  350
 SOLVING FOR ZETA FOR LAYER     1 ZONE     2
 SOLVING FOR ZETA FOR LAYER     2 ZONE     2
 SOLVING FOR ZETA FOR LAYER     3 ZONE     2
 
 SOLVING FOR HEAD 

 NO OUTPUT CONTROL FOR STRESS PERIOD    1   TIME STEP  351
 SOLVING FOR ZETA FOR LAYER     1 ZONE     2
 SOLVING FOR ZETA FOR LAYER     2 ZONE     2
 SOLVING FOR ZETA FOR LAYER     3 ZONE     2
 
 SOLVING FOR HEAD 

 NO OUTPUT CONTROL FOR STRESS PERIOD    1   TIME STEP  352
 SOLVING FOR ZETA FOR LAYER     1 ZONE     2
 SOLVING FOR ZETA FOR LAYER     2 ZONE     2
 SOLVING FOR ZETA FOR LAYER     3 ZONE     2
 
 SOLVING FOR HEAD 

 NO OUTPUT CONTROL FOR STRESS PERIOD    1   TIME STEP  353
 SOLVING FOR ZETA FOR LAYER     1 ZONE     2
 SOLVING FOR ZETA FOR LAYER     2 ZONE     2
 SOLVING FOR ZETA FOR LAYER     3 ZONE     2
 
 SOLVING FOR HEAD 

 NO OUTPUT CONTROL FOR STRESS PERIOD    1   TIME STEP  354
 SOLVING FOR ZETA FOR LAYER     1 ZONE     2
 SOLVING FOR ZETA FOR LAYER     2 ZONE     2
 SOLVING FOR ZETA FOR LAYER     3 ZONE     2
 
 SOLVING FOR HEAD 

 NO OUTPUT CONTROL FOR STRESS PERIOD    1   TIME STEP  355
 SOLVING FOR ZETA FOR LAYER     1 ZONE     2
 SOLVING FOR ZETA FOR LAYER     2 ZONE     2
 SOLVING FOR ZETA FOR LAYER     3 ZONE     2
 
 SOLVING FOR HEAD 

 NO OUTPUT CONTROL FOR STRESS PERIOD    1   TIME STEP  356
 SOLVING FOR ZETA FOR LAYER     1 ZONE     2
 SOLVING FOR ZETA FOR LAYER     2 ZONE     2
 SOLVING FOR ZETA FOR LAYER     3 ZONE     2
 
 SOLVING FOR HEAD 

 NO OUTPUT CONTROL FOR STRESS PERIOD    1   TIME STEP  357
 SOLVING FOR ZETA FOR LAYER     1 ZONE     2
 SOLVING FOR ZETA FOR LAYER     2 ZONE     2
 SOLVING FOR ZETA FOR LAYER     3 ZONE     2
 
 SOLVING FOR HEAD 

 NO OUTPUT CONTROL FOR STRESS PERIOD    1   TIME STEP  358
 SOLVING FOR ZETA FOR LAYER     1 ZONE     2
 SOLVING FOR ZETA FOR LAYER     2 ZONE     2
 SOLVING FOR ZETA FOR LAYER     3 ZONE     2
 
 SOLVING FOR HEAD 

 NO OUTPUT CONTROL FOR STRESS PERIOD    1   TIME STEP  359
 SOLVING FOR ZETA FOR LAYER     1 ZONE     2
 SOLVING FOR ZETA FOR LAYER     2 ZONE     2
 SOLVING FOR ZETA FOR LAYER     3 ZONE     2
 
 SOLVING FOR HEAD 

 NO OUTPUT CONTROL FOR STRESS PERIOD    1   TIME STEP  360
 SOLVING FOR ZETA FOR LAYER     1 ZONE     2
 SOLVING FOR ZETA FOR LAYER     2 ZONE     2
 SOLVING FOR ZETA FOR LAYER     3 ZONE     2
 
 SOLVING FOR HEAD 

 NO OUTPUT CONTROL FOR STRESS PERIOD    1   TIME STEP  361
 SOLVING FOR ZETA FOR LAYER     1 ZONE     2
 SOLVING FOR ZETA FOR LAYER     2 ZONE     2
 SOLVING FOR ZETA FOR LAYER     3 ZONE     2
 
 SOLVING FOR HEAD 

 NO OUTPUT CONTROL FOR STRESS PERIOD    1   TIME STEP  362
 SOLVING FOR ZETA FOR LAYER     1 ZONE     2
 SOLVING FOR ZETA FOR LAYER     2 ZONE     2
 SOLVING FOR ZETA FOR LAYER     3 ZONE     2
 
 SOLVING FOR HEAD 

 NO OUTPUT CONTROL FOR STRESS PERIOD    1   TIME STEP  363
 SOLVING FOR ZETA FOR LAYER     1 ZONE     2
 SOLVING FOR ZETA FOR LAYER     2 ZONE     2
 SOLVING FOR ZETA FOR LAYER     3 ZONE     2
 
 SOLVING FOR HEAD 

 NO OUTPUT CONTROL FOR STRESS PERIOD    1   TIME STEP  364
 SOLVING FOR ZETA FOR LAYER     1 ZONE     2
 SOLVING FOR ZETA FOR LAYER     2 ZONE     2
 SOLVING FOR ZETA FOR LAYER     3 ZONE     2
 
 SOLVING FOR HEAD 

 NO OUTPUT CONTROL FOR STRESS PERIOD    1   TIME STEP  365
 SOLVING FOR ZETA FOR LAYER     1 ZONE     2
 SOLVING FOR ZETA FOR LAYER     2 ZONE     2
 SOLVING FOR ZETA FOR LAYER     3 ZONE     2
 
 SOLVING FOR HEAD 

 NO OUTPUT CONTROL FOR STRESS PERIOD    1   TIME STEP  366
 SOLVING FOR ZETA FOR LAYER     1 ZONE     2
 SOLVING FOR ZETA FOR LAYER     2 ZONE     2
 SOLVING FOR ZETA FOR LAYER     3 ZONE     2
 
 SOLVING FOR HEAD 

 NO OUTPUT CONTROL FOR STRESS PERIOD    1   TIME STEP  367
 SOLVING FOR ZETA FOR LAYER     1 ZONE     2
 SOLVING FOR ZETA FOR LAYER     2 ZONE     2
 SOLVING FOR ZETA FOR LAYER     3 ZONE     2
 
 SOLVING FOR HEAD 

 NO OUTPUT CONTROL FOR STRESS PERIOD    1   TIME STEP  368
 SOLVING FOR ZETA FOR LAYER     1 ZONE     2
 SOLVING FOR ZETA FOR LAYER     2 ZONE     2
 SOLVING FOR ZETA FOR LAYER     3 ZONE     2
 
 SOLVING FOR HEAD 

 NO OUTPUT CONTROL FOR STRESS PERIOD    1   TIME STEP  369
 SOLVING FOR ZETA FOR LAYER     1 ZONE     2
 SOLVING FOR ZETA FOR LAYER     2 ZONE     2
 SOLVING FOR ZETA FOR LAYER     3 ZONE     2
 
 SOLVING FOR HEAD 

 NO OUTPUT CONTROL FOR STRESS PERIOD    1   TIME STEP  370
 SOLVING FOR ZETA FOR LAYER     1 ZONE     2
 SOLVING FOR ZETA FOR LAYER     2 ZONE     2
 SOLVING FOR ZETA FOR LAYER     3 ZONE     2
 
 SOLVING FOR HEAD 

 NO OUTPUT CONTROL FOR STRESS PERIOD    1   TIME STEP  371
 SOLVING FOR ZETA FOR LAYER     1 ZONE     2
 SOLVING FOR ZETA FOR LAYER     2 ZONE     2
 SOLVING FOR ZETA FOR LAYER     3 ZONE     2
 
 SOLVING FOR HEAD 

 NO OUTPUT CONTROL FOR STRESS PERIOD    1   TIME STEP  372
 SOLVING FOR ZETA FOR LAYER     1 ZONE     2
 SOLVING FOR ZETA FOR LAYER     2 ZONE     2
 SOLVING FOR ZETA FOR LAYER     3 ZONE     2
 
 SOLVING FOR HEAD 

 NO OUTPUT CONTROL FOR STRESS PERIOD    1   TIME STEP  373
 SOLVING FOR ZETA FOR LAYER     1 ZONE     2
 SOLVING FOR ZETA FOR LAYER     2 ZONE     2
 SOLVING FOR ZETA FOR LAYER     3 ZONE     2
 
 SOLVING FOR HEAD 

 NO OUTPUT CONTROL FOR STRESS PERIOD    1   TIME STEP  374
 SOLVING FOR ZETA FOR LAYER     1 ZONE     2
 SOLVING FOR ZETA FOR LAYER     2 ZONE     2
 SOLVING FOR ZETA FOR LAYER     3 ZONE     2
 
 SOLVING FOR HEAD 

 NO OUTPUT CONTROL FOR STRESS PERIOD    1   TIME STEP  375
 SOLVING FOR ZETA FOR LAYER     1 ZONE     2
 SOLVING FOR ZETA FOR LAYER     2 ZONE     2
 SOLVING FOR ZETA FOR LAYER     3 ZONE     2
 
 SOLVING FOR HEAD 

 NO OUTPUT CONTROL FOR STRESS PERIOD    1   TIME STEP  376
 SOLVING FOR ZETA FOR LAYER     1 ZONE     2
 SOLVING FOR ZETA FOR LAYER     2 ZONE     2
 SOLVING FOR ZETA FOR LAYER     3 ZONE     2
 
 SOLVING FOR HEAD 

 NO OUTPUT CONTROL FOR STRESS PERIOD    1   TIME STEP  377
 SOLVING FOR ZETA FOR LAYER     1 ZONE     2
 SOLVING FOR ZETA FOR LAYER     2 ZONE     2
 SOLVING FOR ZETA FOR LAYER     3 ZONE     2
 
 SOLVING FOR HEAD 

 NO OUTPUT CONTROL FOR STRESS PERIOD    1   TIME STEP  378
 SOLVING FOR ZETA FOR LAYER     1 ZONE     2
 SOLVING FOR ZETA FOR LAYER     2 ZONE     2
 SOLVING FOR ZETA FOR LAYER     3 ZONE     2
 
 SOLVING FOR HEAD 

 NO OUTPUT CONTROL FOR STRESS PERIOD    1   TIME STEP  379
 SOLVING FOR ZETA FOR LAYER     1 ZONE     2
 SOLVING FOR ZETA FOR LAYER     2 ZONE     2
 SOLVING FOR ZETA FOR LAYER     3 ZONE     2
 
 SOLVING FOR HEAD 

 NO OUTPUT CONTROL FOR STRESS PERIOD    1   TIME STEP  380
 SOLVING FOR ZETA FOR LAYER     1 ZONE     2
 SOLVING FOR ZETA FOR LAYER     2 ZONE     2
 SOLVING FOR ZETA FOR LAYER     3 ZONE     2
 
 SOLVING FOR HEAD 

 NO OUTPUT CONTROL FOR STRESS PERIOD    1   TIME STEP  381
 SOLVING FOR ZETA FOR LAYER     1 ZONE     2
 SOLVING FOR ZETA FOR LAYER     2 ZONE     2
 SOLVING FOR ZETA FOR LAYER     3 ZONE     2
 
 SOLVING FOR HEAD 

 NO OUTPUT CONTROL FOR STRESS PERIOD    1   TIME STEP  382
 SOLVING FOR ZETA FOR LAYER     1 ZONE     2
 SOLVING FOR ZETA FOR LAYER     2 ZONE     2
 SOLVING FOR ZETA FOR LAYER     3 ZONE     2
 
 SOLVING FOR HEAD 

 NO OUTPUT CONTROL FOR STRESS PERIOD    1   TIME STEP  383
 SOLVING FOR ZETA FOR LAYER     1 ZONE     2
 SOLVING FOR ZETA FOR LAYER     2 ZONE     2
 SOLVING FOR ZETA FOR LAYER     3 ZONE     2
 
 SOLVING FOR HEAD 

 NO OUTPUT CONTROL FOR STRESS PERIOD    1   TIME STEP  384
 SOLVING FOR ZETA FOR LAYER     1 ZONE     2
 SOLVING FOR ZETA FOR LAYER     2 ZONE     2
 SOLVING FOR ZETA FOR LAYER     3 ZONE     2
 
 SOLVING FOR HEAD 

 NO OUTPUT CONTROL FOR STRESS PERIOD    1   TIME STEP  385
 SOLVING FOR ZETA FOR LAYER     1 ZONE     2
 SOLVING FOR ZETA FOR LAYER     2 ZONE     2
 SOLVING FOR ZETA FOR LAYER     3 ZONE     2
 
 SOLVING FOR HEAD 

 NO OUTPUT CONTROL FOR STRESS PERIOD    1   TIME STEP  386
 SOLVING FOR ZETA FOR LAYER     1 ZONE     2
 SOLVING FOR ZETA FOR LAYER     2 ZONE     2
 SOLVING FOR ZETA FOR LAYER     3 ZONE     2
 
 SOLVING FOR HEAD 

 NO OUTPUT CONTROL FOR STRESS PERIOD    1   TIME STEP  387
 SOLVING FOR ZETA FOR LAYER     1 ZONE     2
 SOLVING FOR ZETA FOR LAYER     2 ZONE     2
 SOLVING FOR ZETA FOR LAYER     3 ZONE     2
 
 SOLVING FOR HEAD 

 NO OUTPUT CONTROL FOR STRESS PERIOD    1   TIME STEP  388
 SOLVING FOR ZETA FOR LAYER     1 ZONE     2
 SOLVING FOR ZETA FOR LAYER     2 ZONE     2
 SOLVING FOR ZETA FOR LAYER     3 ZONE     2
 
 SOLVING FOR HEAD 

 NO OUTPUT CONTROL FOR STRESS PERIOD    1   TIME STEP  389
 SOLVING FOR ZETA FOR LAYER     1 ZONE     2
 SOLVING FOR ZETA FOR LAYER     2 ZONE     2
 SOLVING FOR ZETA FOR LAYER     3 ZONE     2
 
 SOLVING FOR HEAD 

 NO OUTPUT CONTROL FOR STRESS PERIOD    1   TIME STEP  390
 SOLVING FOR ZETA FOR LAYER     1 ZONE     2
 SOLVING FOR ZETA FOR LAYER     2 ZONE     2
 SOLVING FOR ZETA FOR LAYER     3 ZONE     2
 
 SOLVING FOR HEAD 

 NO OUTPUT CONTROL FOR STRESS PERIOD    1   TIME STEP  391
 SOLVING FOR ZETA FOR LAYER     1 ZONE     2
 SOLVING FOR ZETA FOR LAYER     2 ZONE     2
 SOLVING FOR ZETA FOR LAYER     3 ZONE     2
 
 SOLVING FOR HEAD 

 NO OUTPUT CONTROL FOR STRESS PERIOD    1   TIME STEP  392
 SOLVING FOR ZETA FOR LAYER     1 ZONE     2
 SOLVING FOR ZETA FOR LAYER     2 ZONE     2
 SOLVING FOR ZETA FOR LAYER     3 ZONE     2
 
 SOLVING FOR HEAD 

 NO OUTPUT CONTROL FOR STRESS PERIOD    1   TIME STEP  393
 SOLVING FOR ZETA FOR LAYER     1 ZONE     2
 SOLVING FOR ZETA FOR LAYER     2 ZONE     2
 SOLVING FOR ZETA FOR LAYER     3 ZONE     2
 
 SOLVING FOR HEAD 

 NO OUTPUT CONTROL FOR STRESS PERIOD    1   TIME STEP  394
 SOLVING FOR ZETA FOR LAYER     1 ZONE     2
 SOLVING FOR ZETA FOR LAYER     2 ZONE     2
 SOLVING FOR ZETA FOR LAYER     3 ZONE     2
 
 SOLVING FOR HEAD 

 NO OUTPUT CONTROL FOR STRESS PERIOD    1   TIME STEP  395
 SOLVING FOR ZETA FOR LAYER     1 ZONE     2
 SOLVING FOR ZETA FOR LAYER     2 ZONE     2
 SOLVING FOR ZETA FOR LAYER     3 ZONE     2
 
 SOLVING FOR HEAD 

 NO OUTPUT CONTROL FOR STRESS PERIOD    1   TIME STEP  396
 SOLVING FOR ZETA FOR LAYER     1 ZONE     2
 SOLVING FOR ZETA FOR LAYER     2 ZONE     2
 SOLVING FOR ZETA FOR LAYER     3 ZONE     2
 
 SOLVING FOR HEAD 

 NO OUTPUT CONTROL FOR STRESS PERIOD    1   TIME STEP  397
 SOLVING FOR ZETA FOR LAYER     1 ZONE     2
 SOLVING FOR ZETA FOR LAYER     2 ZONE     2
 SOLVING FOR ZETA FOR LAYER     3 ZONE     2
 
 SOLVING FOR HEAD 

 NO OUTPUT CONTROL FOR STRESS PERIOD    1   TIME STEP  398
 SOLVING FOR ZETA FOR LAYER     1 ZONE     2
 SOLVING FOR ZETA FOR LAYER     2 ZONE     2
 SOLVING FOR ZETA FOR LAYER     3 ZONE     2
 
 SOLVING FOR HEAD 

 NO OUTPUT CONTROL FOR STRESS PERIOD    1   TIME STEP  399
 SOLVING FOR ZETA FOR LAYER     1 ZONE     2
 SOLVING FOR ZETA FOR LAYER     2 ZONE     2
 SOLVING FOR ZETA FOR LAYER     3 ZONE     2
 
 SOLVING FOR HEAD 

 OUTPUT CONTROL FOR STRESS PERIOD    1   TIME STEP  400
    PRINT BUDGET
    SAVE HEAD FOR ALL LAYERS
 SOLVING FOR ZETA FOR LAYER     1 ZONE     2
 SOLVING FOR ZETA FOR LAYER     2 ZONE     2
 SOLVING FOR ZETA FOR LAYER     3 ZONE     2
 UBUDSV SAVING "      ZETASRF  1" ON UNIT 55 AT TIME STEP400, STRESS PERIOD    1


                      VOLUMETRIC SWI ZONE BUDGET FOR ENTIRE MODEL
                     AT END OF TIME STEP  400 IN STRESS PERIOD   1
                                      ZONE     1
  -----------------------------------------------------------------------------------

        CUMULATIVE VOLUMES      L**3       RATES FOR THIS TIME STEP      L**3/T
        ------------------                 ------------------------

              IN:                                      IN:
              ---                                      ---
             BOUNDARIES =   168012912.0000            BOUNDARIES =        5676.1504
          CONSTANT HEAD =           0.0000         CONSTANT HEAD =           0.0000
            ZONE CHANGE =     2657876.0000           ZONE CHANGE =         107.6267
       ZONE CHG TIP/TOE =    63379384.0000      ZONE CHG TIP/TOE =        1289.4481
            ZONE MIXING =       76900.9688           ZONE MIXING =           4.0496

               TOTAL IN =   234127072.0000              TOTAL IN =        7077.2744

             OUT:                                     OUT:
             ----                                     ----
             BOUNDARIES =   103308640.0000            BOUNDARIES =        5247.9321
          CONSTANT HEAD =           0.0000         CONSTANT HEAD =           0.0000
            ZONE CHANGE =    66186688.0000           ZONE CHANGE =        1375.5026
       ZONE CHG TIP/TOE =      192189.9531      ZONE CHG TIP/TOE =           3.0763
            ZONE MIXING =    22626192.0000           ZONE MIXING =         613.8942

              TOTAL OUT =   192313712.0000             TOTAL OUT =        7240.4048

               IN - OUT =    41813360.0000              IN - OUT =        -163.1304

    PERCENT DISCREPANCY =          19.61     PERCENT DISCREPANCY =          -2.28



                      VOLUMETRIC SWI ZONE BUDGET FOR ENTIRE MODEL
                     AT END OF TIME STEP  400 IN STRESS PERIOD   1
                                      ZONE     2
  -----------------------------------------------------------------------------------

        CUMULATIVE VOLUMES      L**3       RATES FOR THIS TIME STEP      L**3/T
        ------------------                 ------------------------

              IN:                                      IN:
              ---                                      ---
             BOUNDARIES =    27267558.0000            BOUNDARIES =        1168.7017
          CONSTANT HEAD =           0.0000         CONSTANT HEAD =           0.0000
            ZONE CHANGE =     2768145.2500           ZONE CHANGE =          87.6958
       ZONE CHG TIP/TOE =    26498788.0000      ZONE CHG TIP/TOE =        1477.1837
            ZONE MIXING =    22626192.0000           ZONE MIXING =         613.8942

               TOTAL IN =    79160688.0000              TOTAL IN =        3347.4753

             OUT:                                     OUT:
             ----                                     ----
             BOUNDARIES =    92073968.0000            BOUNDARIES =        1600.4736
          CONSTANT HEAD =           0.0000         CONSTANT HEAD =           0.0000
            ZONE CHANGE =    28938076.0000           ZONE CHANGE =        1577.3604
       ZONE CHG TIP/TOE =       41038.9570      ZONE CHG TIP/TOE =           1.5907
            ZONE MIXING =       76900.9688           ZONE MIXING =           4.0496

              TOTAL OUT =   121129992.0000             TOTAL OUT =        3183.4741

               IN - OUT =   -41969304.0000              IN - OUT =         164.0012

    PERCENT DISCREPANCY =         -41.91     PERCENT DISCREPANCY =           5.02


 HEAD WILL BE SAVED ON UNIT   51 AT END OF TIME STEP  400, STRESS PERIOD    1
1
  VOLUMETRIC BUDGET FOR ENTIRE MODEL AT END OF TIME STEP  400, STRESS PERIOD   1
  ------------------------------------------------------------------------------

     CUMULATIVE VOLUMES      L**3       RATES FOR THIS TIME STEP      L**3/T
     ------------------                 ------------------------

           IN:                                      IN:
           ---                                      ---
             STORAGE =           0.0000               STORAGE =           0.0000
       CONSTANT HEAD =           0.0000         CONSTANT HEAD =           0.0000
          SWIADDTOCH =           0.0000            SWIADDTOCH =           0.0000
               WELLS =           0.0000                 WELLS =           0.0000
     HEAD DEP BOUNDS =    23999698.0000       HEAD DEP BOUNDS =         983.0891
            RECHARGE =   171280848.0000              RECHARGE =        5861.7627

            TOTAL IN =   195280544.0000              TOTAL IN =        6844.8516

          OUT:                                     OUT:
          ----                                     ----
             STORAGE =           0.0000               STORAGE =           0.0000
       CONSTANT HEAD =           0.0000         CONSTANT HEAD =           0.0000
          SWIADDTOCH =           0.0000            SWIADDTOCH =           0.0000
               WELLS =           0.0000                 WELLS =           0.0000
     HEAD DEP BOUNDS =   195382640.0000       HEAD DEP BOUNDS =        6848.4058
            RECHARGE =           0.0000              RECHARGE =           0.0000

           TOTAL OUT =   195382640.0000             TOTAL OUT =        6848.4058

            IN - OUT =     -102096.0000              IN - OUT =          -3.5542

 PERCENT DISCREPANCY =          -0.05     PERCENT DISCREPANCY =          -0.05






         TIME SUMMARY AT END OF TIME STEP  400 IN STRESS PERIOD    1
                    SECONDS     MINUTES      HOURS       DAYS        YEARS
                    -----------------------------------------------------------
   TIME STEP LENGTH 6.31152E+06 1.05192E+05  1753.2      73.050     0.20000    
 STRESS PERIOD TIME 2.52462E+09 4.20770E+07 7.01283E+05  29220.      80.000    
         TOTAL TIME 2.52462E+09 4.20770E+07 7.01283E+05  29220.      80.000    
1
 
 SOLVING FOR HEAD 

 NO OUTPUT CONTROL FOR STRESS PERIOD    1   TIME STEP  401
 SOLVING FOR ZETA FOR LAYER     1 ZONE     2
 SOLVING FOR ZETA FOR LAYER     2 ZONE     2
 SOLVING FOR ZETA FOR LAYER     3 ZONE     2
 
 SOLVING FOR HEAD 

 NO OUTPUT CONTROL FOR STRESS PERIOD    1   TIME STEP  402
 SOLVING FOR ZETA FOR LAYER     1 ZONE     2
 SOLVING FOR ZETA FOR LAYER     2 ZONE     2
 SOLVING FOR ZETA FOR LAYER     3 ZONE     2
 
 SOLVING FOR HEAD 

 NO OUTPUT CONTROL FOR STRESS PERIOD    1   TIME STEP  403
 SOLVING FOR ZETA FOR LAYER     1 ZONE     2
 SOLVING FOR ZETA FOR LAYER     2 ZONE     2
 SOLVING FOR ZETA FOR LAYER     3 ZONE     2
 
 SOLVING FOR HEAD 

 NO OUTPUT CONTROL FOR STRESS PERIOD    1   TIME STEP  404
 SOLVING FOR ZETA FOR LAYER     1 ZONE     2
 SOLVING FOR ZETA FOR LAYER     2 ZONE     2
 SOLVING FOR ZETA FOR LAYER     3 ZONE     2
 
 SOLVING FOR HEAD 

 NO OUTPUT CONTROL FOR STRESS PERIOD    1   TIME STEP  405
 SOLVING FOR ZETA FOR LAYER     1 ZONE     2
 SOLVING FOR ZETA FOR LAYER     2 ZONE     2
 SOLVING FOR ZETA FOR LAYER     3 ZONE     2
 
 SOLVING FOR HEAD 

 NO OUTPUT CONTROL FOR STRESS PERIOD    1   TIME STEP  406
 SOLVING FOR ZETA FOR LAYER     1 ZONE     2
 SOLVING FOR ZETA FOR LAYER     2 ZONE     2
 SOLVING FOR ZETA FOR LAYER     3 ZONE     2
 
 SOLVING FOR HEAD 

 NO OUTPUT CONTROL FOR STRESS PERIOD    1   TIME STEP  407
 SOLVING FOR ZETA FOR LAYER     1 ZONE     2
 SOLVING FOR ZETA FOR LAYER     2 ZONE     2
 SOLVING FOR ZETA FOR LAYER     3 ZONE     2
 
 SOLVING FOR HEAD 

 NO OUTPUT CONTROL FOR STRESS PERIOD    1   TIME STEP  408
 SOLVING FOR ZETA FOR LAYER     1 ZONE     2
 SOLVING FOR ZETA FOR LAYER     2 ZONE     2
 SOLVING FOR ZETA FOR LAYER     3 ZONE     2
 
 SOLVING FOR HEAD 

 NO OUTPUT CONTROL FOR STRESS PERIOD    1   TIME STEP  409
 SOLVING FOR ZETA FOR LAYER     1 ZONE     2
 SOLVING FOR ZETA FOR LAYER     2 ZONE     2
 SOLVING FOR ZETA FOR LAYER     3 ZONE     2
 
 SOLVING FOR HEAD 

 NO OUTPUT CONTROL FOR STRESS PERIOD    1   TIME STEP  410
 SOLVING FOR ZETA FOR LAYER     1 ZONE     2
 SOLVING FOR ZETA FOR LAYER     2 ZONE     2
 SOLVING FOR ZETA FOR LAYER     3 ZONE     2
 
 SOLVING FOR HEAD 

 NO OUTPUT CONTROL FOR STRESS PERIOD    1   TIME STEP  411
 SOLVING FOR ZETA FOR LAYER     1 ZONE     2
 SOLVING FOR ZETA FOR LAYER     2 ZONE     2
 SOLVING FOR ZETA FOR LAYER     3 ZONE     2
 
 SOLVING FOR HEAD 

 NO OUTPUT CONTROL FOR STRESS PERIOD    1   TIME STEP  412
 SOLVING FOR ZETA FOR LAYER     1 ZONE     2
 SOLVING FOR ZETA FOR LAYER     2 ZONE     2
 SOLVING FOR ZETA FOR LAYER     3 ZONE     2
 
 SOLVING FOR HEAD 

 NO OUTPUT CONTROL FOR STRESS PERIOD    1   TIME STEP  413
 SOLVING FOR ZETA FOR LAYER     1 ZONE     2
 SOLVING FOR ZETA FOR LAYER     2 ZONE     2
 SOLVING FOR ZETA FOR LAYER     3 ZONE     2
 
 SOLVING FOR HEAD 

 NO OUTPUT CONTROL FOR STRESS PERIOD    1   TIME STEP  414
 SOLVING FOR ZETA FOR LAYER     1 ZONE     2
 SOLVING FOR ZETA FOR LAYER     2 ZONE     2
 SOLVING FOR ZETA FOR LAYER     3 ZONE     2
 
 SOLVING FOR HEAD 

 NO OUTPUT CONTROL FOR STRESS PERIOD    1   TIME STEP  415
 SOLVING FOR ZETA FOR LAYER     1 ZONE     2
 SOLVING FOR ZETA FOR LAYER     2 ZONE     2
 SOLVING FOR ZETA FOR LAYER     3 ZONE     2
 
 SOLVING FOR HEAD 

 NO OUTPUT CONTROL FOR STRESS PERIOD    1   TIME STEP  416
 SOLVING FOR ZETA FOR LAYER     1 ZONE     2
 SOLVING FOR ZETA FOR LAYER     2 ZONE     2
 SOLVING FOR ZETA FOR LAYER     3 ZONE     2
 
 SOLVING FOR HEAD 

 NO OUTPUT CONTROL FOR STRESS PERIOD    1   TIME STEP  417
 SOLVING FOR ZETA FOR LAYER     1 ZONE     2
 SOLVING FOR ZETA FOR LAYER     2 ZONE     2
 SOLVING FOR ZETA FOR LAYER     3 ZONE     2
 
 SOLVING FOR HEAD 

 NO OUTPUT CONTROL FOR STRESS PERIOD    1   TIME STEP  418
 SOLVING FOR ZETA FOR LAYER     1 ZONE     2
 SOLVING FOR ZETA FOR LAYER     2 ZONE     2
 SOLVING FOR ZETA FOR LAYER     3 ZONE     2
 
 SOLVING FOR HEAD 

 NO OUTPUT CONTROL FOR STRESS PERIOD    1   TIME STEP  419
 SOLVING FOR ZETA FOR LAYER     1 ZONE     2
 SOLVING FOR ZETA FOR LAYER     2 ZONE     2
 SOLVING FOR ZETA FOR LAYER     3 ZONE     2
 
 SOLVING FOR HEAD 

 NO OUTPUT CONTROL FOR STRESS PERIOD    1   TIME STEP  420
 SOLVING FOR ZETA FOR LAYER     1 ZONE     2
 SOLVING FOR ZETA FOR LAYER     2 ZONE     2
 SOLVING FOR ZETA FOR LAYER     3 ZONE     2
 
 SOLVING FOR HEAD 

 NO OUTPUT CONTROL FOR STRESS PERIOD    1   TIME STEP  421
 SOLVING FOR ZETA FOR LAYER     1 ZONE     2
 SOLVING FOR ZETA FOR LAYER     2 ZONE     2
 SOLVING FOR ZETA FOR LAYER     3 ZONE     2
 
 SOLVING FOR HEAD 

 NO OUTPUT CONTROL FOR STRESS PERIOD    1   TIME STEP  422
 SOLVING FOR ZETA FOR LAYER     1 ZONE     2
 SOLVING FOR ZETA FOR LAYER     2 ZONE     2
 SOLVING FOR ZETA FOR LAYER     3 ZONE     2
 
 SOLVING FOR HEAD 

 NO OUTPUT CONTROL FOR STRESS PERIOD    1   TIME STEP  423
 SOLVING FOR ZETA FOR LAYER     1 ZONE     2
 SOLVING FOR ZETA FOR LAYER     2 ZONE     2
 SOLVING FOR ZETA FOR LAYER     3 ZONE     2
 
 SOLVING FOR HEAD 

 NO OUTPUT CONTROL FOR STRESS PERIOD    1   TIME STEP  424
 SOLVING FOR ZETA FOR LAYER     1 ZONE     2
 SOLVING FOR ZETA FOR LAYER     2 ZONE     2
 SOLVING FOR ZETA FOR LAYER     3 ZONE     2
 
 SOLVING FOR HEAD 

 NO OUTPUT CONTROL FOR STRESS PERIOD    1   TIME STEP  425
 SOLVING FOR ZETA FOR LAYER     1 ZONE     2
 SOLVING FOR ZETA FOR LAYER     2 ZONE     2
 SOLVING FOR ZETA FOR LAYER     3 ZONE     2
 
 SOLVING FOR HEAD 

 NO OUTPUT CONTROL FOR STRESS PERIOD    1   TIME STEP  426
 SOLVING FOR ZETA FOR LAYER     1 ZONE     2
 SOLVING FOR ZETA FOR LAYER     2 ZONE     2
 SOLVING FOR ZETA FOR LAYER     3 ZONE     2
 
 SOLVING FOR HEAD 

 NO OUTPUT CONTROL FOR STRESS PERIOD    1   TIME STEP  427
 SOLVING FOR ZETA FOR LAYER     1 ZONE     2
 SOLVING FOR ZETA FOR LAYER     2 ZONE     2
 SOLVING FOR ZETA FOR LAYER     3 ZONE     2
 
 SOLVING FOR HEAD 

 NO OUTPUT CONTROL FOR STRESS PERIOD    1   TIME STEP  428
 SOLVING FOR ZETA FOR LAYER     1 ZONE     2
 SOLVING FOR ZETA FOR LAYER     2 ZONE     2
 SOLVING FOR ZETA FOR LAYER     3 ZONE     2
 
 SOLVING FOR HEAD 

 NO OUTPUT CONTROL FOR STRESS PERIOD    1   TIME STEP  429
 SOLVING FOR ZETA FOR LAYER     1 ZONE     2
 SOLVING FOR ZETA FOR LAYER     2 ZONE     2
 SOLVING FOR ZETA FOR LAYER     3 ZONE     2
 
 SOLVING FOR HEAD 

 NO OUTPUT CONTROL FOR STRESS PERIOD    1   TIME STEP  430
 SOLVING FOR ZETA FOR LAYER     1 ZONE     2
 SOLVING FOR ZETA FOR LAYER     2 ZONE     2
 SOLVING FOR ZETA FOR LAYER     3 ZONE     2
 
 SOLVING FOR HEAD 

 NO OUTPUT CONTROL FOR STRESS PERIOD    1   TIME STEP  431
 SOLVING FOR ZETA FOR LAYER     1 ZONE     2
 SOLVING FOR ZETA FOR LAYER     2 ZONE     2
 SOLVING FOR ZETA FOR LAYER     3 ZONE     2
 
 SOLVING FOR HEAD 

 NO OUTPUT CONTROL FOR STRESS PERIOD    1   TIME STEP  432
 SOLVING FOR ZETA FOR LAYER     1 ZONE     2
 SOLVING FOR ZETA FOR LAYER     2 ZONE     2
 SOLVING FOR ZETA FOR LAYER     3 ZONE     2
 
 SOLVING FOR HEAD 

 NO OUTPUT CONTROL FOR STRESS PERIOD    1   TIME STEP  433
 SOLVING FOR ZETA FOR LAYER     1 ZONE     2
 SOLVING FOR ZETA FOR LAYER     2 ZONE     2
 SOLVING FOR ZETA FOR LAYER     3 ZONE     2
 
 SOLVING FOR HEAD 

 NO OUTPUT CONTROL FOR STRESS PERIOD    1   TIME STEP  434
 SOLVING FOR ZETA FOR LAYER     1 ZONE     2
 SOLVING FOR ZETA FOR LAYER     2 ZONE     2
 SOLVING FOR ZETA FOR LAYER     3 ZONE     2
 
 SOLVING FOR HEAD 

 NO OUTPUT CONTROL FOR STRESS PERIOD    1   TIME STEP  435
 SOLVING FOR ZETA FOR LAYER     1 ZONE     2
 SOLVING FOR ZETA FOR LAYER     2 ZONE     2
 SOLVING FOR ZETA FOR LAYER     3 ZONE     2
 
 SOLVING FOR HEAD 

 NO OUTPUT CONTROL FOR STRESS PERIOD    1   TIME STEP  436
 SOLVING FOR ZETA FOR LAYER     1 ZONE     2
 SOLVING FOR ZETA FOR LAYER     2 ZONE     2
 SOLVING FOR ZETA FOR LAYER     3 ZONE     2
 
 SOLVING FOR HEAD 

 NO OUTPUT CONTROL FOR STRESS PERIOD    1   TIME STEP  437
 SOLVING FOR ZETA FOR LAYER     1 ZONE     2
 SOLVING FOR ZETA FOR LAYER     2 ZONE     2
 SOLVING FOR ZETA FOR LAYER     3 ZONE     2
 
 SOLVING FOR HEAD 

 NO OUTPUT CONTROL FOR STRESS PERIOD    1   TIME STEP  438
 SOLVING FOR ZETA FOR LAYER     1 ZONE     2
 SOLVING FOR ZETA FOR LAYER     2 ZONE     2
 SOLVING FOR ZETA FOR LAYER     3 ZONE     2
 
 SOLVING FOR HEAD 

 NO OUTPUT CONTROL FOR STRESS PERIOD    1   TIME STEP  439
 SOLVING FOR ZETA FOR LAYER     1 ZONE     2
 SOLVING FOR ZETA FOR LAYER     2 ZONE     2
 SOLVING FOR ZETA FOR LAYER     3 ZONE     2
 
 SOLVING FOR HEAD 

 NO OUTPUT CONTROL FOR STRESS PERIOD    1   TIME STEP  440
 SOLVING FOR ZETA FOR LAYER     1 ZONE     2
 SOLVING FOR ZETA FOR LAYER     2 ZONE     2
 SOLVING FOR ZETA FOR LAYER     3 ZONE     2
 
 SOLVING FOR HEAD 

 NO OUTPUT CONTROL FOR STRESS PERIOD    1   TIME STEP  441
 SOLVING FOR ZETA FOR LAYER     1 ZONE     2
 SOLVING FOR ZETA FOR LAYER     2 ZONE     2
 SOLVING FOR ZETA FOR LAYER     3 ZONE     2
 
 SOLVING FOR HEAD 

 NO OUTPUT CONTROL FOR STRESS PERIOD    1   TIME STEP  442
 SOLVING FOR ZETA FOR LAYER     1 ZONE     2
 SOLVING FOR ZETA FOR LAYER     2 ZONE     2
 SOLVING FOR ZETA FOR LAYER     3 ZONE     2
 
 SOLVING FOR HEAD 

 NO OUTPUT CONTROL FOR STRESS PERIOD    1   TIME STEP  443
 SOLVING FOR ZETA FOR LAYER     1 ZONE     2
 SOLVING FOR ZETA FOR LAYER     2 ZONE     2
 SOLVING FOR ZETA FOR LAYER     3 ZONE     2
 
 SOLVING FOR HEAD 

 NO OUTPUT CONTROL FOR STRESS PERIOD    1   TIME STEP  444
 SOLVING FOR ZETA FOR LAYER     1 ZONE     2
 SOLVING FOR ZETA FOR LAYER     2 ZONE     2
 SOLVING FOR ZETA FOR LAYER     3 ZONE     2
 
 SOLVING FOR HEAD 

 NO OUTPUT CONTROL FOR STRESS PERIOD    1   TIME STEP  445
 SOLVING FOR ZETA FOR LAYER     1 ZONE     2
 SOLVING FOR ZETA FOR LAYER     2 ZONE     2
 SOLVING FOR ZETA FOR LAYER     3 ZONE     2
 
 SOLVING FOR HEAD 

 NO OUTPUT CONTROL FOR STRESS PERIOD    1   TIME STEP  446
 SOLVING FOR ZETA FOR LAYER     1 ZONE     2
 SOLVING FOR ZETA FOR LAYER     2 ZONE     2
 SOLVING FOR ZETA FOR LAYER     3 ZONE     2
 
 SOLVING FOR HEAD 

 NO OUTPUT CONTROL FOR STRESS PERIOD    1   TIME STEP  447
 SOLVING FOR ZETA FOR LAYER     1 ZONE     2
 SOLVING FOR ZETA FOR LAYER     2 ZONE     2
 SOLVING FOR ZETA FOR LAYER     3 ZONE     2
 
 SOLVING FOR HEAD 

 NO OUTPUT CONTROL FOR STRESS PERIOD    1   TIME STEP  448
 SOLVING FOR ZETA FOR LAYER     1 ZONE     2
 SOLVING FOR ZETA FOR LAYER     2 ZONE     2
 SOLVING FOR ZETA FOR LAYER     3 ZONE     2
 
 SOLVING FOR HEAD 

 NO OUTPUT CONTROL FOR STRESS PERIOD    1   TIME STEP  449
 SOLVING FOR ZETA FOR LAYER     1 ZONE     2
 SOLVING FOR ZETA FOR LAYER     2 ZONE     2
 SOLVING FOR ZETA FOR LAYER     3 ZONE     2
 
 SOLVING FOR HEAD 

 NO OUTPUT CONTROL FOR STRESS PERIOD    1   TIME STEP  450
 SOLVING FOR ZETA FOR LAYER     1 ZONE     2
 SOLVING FOR ZETA FOR LAYER     2 ZONE     2
 SOLVING FOR ZETA FOR LAYER     3 ZONE     2
 
 SOLVING FOR HEAD 

 NO OUTPUT CONTROL FOR STRESS PERIOD    1   TIME STEP  451
 SOLVING FOR ZETA FOR LAYER     1 ZONE     2
 SOLVING FOR ZETA FOR LAYER     2 ZONE     2
 SOLVING FOR ZETA FOR LAYER     3 ZONE     2
 
 SOLVING FOR HEAD 

 NO OUTPUT CONTROL FOR STRESS PERIOD    1   TIME STEP  452
 SOLVING FOR ZETA FOR LAYER     1 ZONE     2
 SOLVING FOR ZETA FOR LAYER     2 ZONE     2
 SOLVING FOR ZETA FOR LAYER     3 ZONE     2
 
 SOLVING FOR HEAD 

 NO OUTPUT CONTROL FOR STRESS PERIOD    1   TIME STEP  453
 SOLVING FOR ZETA FOR LAYER     1 ZONE     2
 SOLVING FOR ZETA FOR LAYER     2 ZONE     2
 SOLVING FOR ZETA FOR LAYER     3 ZONE     2
 
 SOLVING FOR HEAD 

 NO OUTPUT CONTROL FOR STRESS PERIOD    1   TIME STEP  454
 SOLVING FOR ZETA FOR LAYER     1 ZONE     2
 SOLVING FOR ZETA FOR LAYER     2 ZONE     2
 SOLVING FOR ZETA FOR LAYER     3 ZONE     2
 
 SOLVING FOR HEAD 

 NO OUTPUT CONTROL FOR STRESS PERIOD    1   TIME STEP  455
 SOLVING FOR ZETA FOR LAYER     1 ZONE     2
 SOLVING FOR ZETA FOR LAYER     2 ZONE     2
 SOLVING FOR ZETA FOR LAYER     3 ZONE     2
 
 SOLVING FOR HEAD 

 NO OUTPUT CONTROL FOR STRESS PERIOD    1   TIME STEP  456
 SOLVING FOR ZETA FOR LAYER     1 ZONE     2
 SOLVING FOR ZETA FOR LAYER     2 ZONE     2
 SOLVING FOR ZETA FOR LAYER     3 ZONE     2
 
 SOLVING FOR HEAD 

 NO OUTPUT CONTROL FOR STRESS PERIOD    1   TIME STEP  457
 SOLVING FOR ZETA FOR LAYER     1 ZONE     2
 SOLVING FOR ZETA FOR LAYER     2 ZONE     2
 SOLVING FOR ZETA FOR LAYER     3 ZONE     2
 
 SOLVING FOR HEAD 

 NO OUTPUT CONTROL FOR STRESS PERIOD    1   TIME STEP  458
 SOLVING FOR ZETA FOR LAYER     1 ZONE     2
 SOLVING FOR ZETA FOR LAYER     2 ZONE     2
 SOLVING FOR ZETA FOR LAYER     3 ZONE     2
 
 SOLVING FOR HEAD 

 NO OUTPUT CONTROL FOR STRESS PERIOD    1   TIME STEP  459
 SOLVING FOR ZETA FOR LAYER     1 ZONE     2
 SOLVING FOR ZETA FOR LAYER     2 ZONE     2
 SOLVING FOR ZETA FOR LAYER     3 ZONE     2
 
 SOLVING FOR HEAD 

 NO OUTPUT CONTROL FOR STRESS PERIOD    1   TIME STEP  460
 SOLVING FOR ZETA FOR LAYER     1 ZONE     2
 SOLVING FOR ZETA FOR LAYER     2 ZONE     2
 SOLVING FOR ZETA FOR LAYER     3 ZONE     2
 
 SOLVING FOR HEAD 

 NO OUTPUT CONTROL FOR STRESS PERIOD    1   TIME STEP  461
 SOLVING FOR ZETA FOR LAYER     1 ZONE     2
 SOLVING FOR ZETA FOR LAYER     2 ZONE     2
 SOLVING FOR ZETA FOR LAYER     3 ZONE     2
 
 SOLVING FOR HEAD 

 NO OUTPUT CONTROL FOR STRESS PERIOD    1   TIME STEP  462
 SOLVING FOR ZETA FOR LAYER     1 ZONE     2
 SOLVING FOR ZETA FOR LAYER     2 ZONE     2
 SOLVING FOR ZETA FOR LAYER     3 ZONE     2
 
 SOLVING FOR HEAD 

 NO OUTPUT CONTROL FOR STRESS PERIOD    1   TIME STEP  463
 SOLVING FOR ZETA FOR LAYER     1 ZONE     2
 SOLVING FOR ZETA FOR LAYER     2 ZONE     2
 SOLVING FOR ZETA FOR LAYER     3 ZONE     2
 
 SOLVING FOR HEAD 

 NO OUTPUT CONTROL FOR STRESS PERIOD    1   TIME STEP  464
 SOLVING FOR ZETA FOR LAYER     1 ZONE     2
 SOLVING FOR ZETA FOR LAYER     2 ZONE     2
 SOLVING FOR ZETA FOR LAYER     3 ZONE     2
 
 SOLVING FOR HEAD 

 NO OUTPUT CONTROL FOR STRESS PERIOD    1   TIME STEP  465
 SOLVING FOR ZETA FOR LAYER     1 ZONE     2
 SOLVING FOR ZETA FOR LAYER     2 ZONE     2
 SOLVING FOR ZETA FOR LAYER     3 ZONE     2
 
 SOLVING FOR HEAD 

 NO OUTPUT CONTROL FOR STRESS PERIOD    1   TIME STEP  466
 SOLVING FOR ZETA FOR LAYER     1 ZONE     2
 SOLVING FOR ZETA FOR LAYER     2 ZONE     2
 SOLVING FOR ZETA FOR LAYER     3 ZONE     2
 
 SOLVING FOR HEAD 

 NO OUTPUT CONTROL FOR STRESS PERIOD    1   TIME STEP  467
 SOLVING FOR ZETA FOR LAYER     1 ZONE     2
 SOLVING FOR ZETA FOR LAYER     2 ZONE     2
 SOLVING FOR ZETA FOR LAYER     3 ZONE     2
 
 SOLVING FOR HEAD 

 NO OUTPUT CONTROL FOR STRESS PERIOD    1   TIME STEP  468
 SOLVING FOR ZETA FOR LAYER     1 ZONE     2
 SOLVING FOR ZETA FOR LAYER     2 ZONE     2
 SOLVING FOR ZETA FOR LAYER     3 ZONE     2
 
 SOLVING FOR HEAD 

 NO OUTPUT CONTROL FOR STRESS PERIOD    1   TIME STEP  469
 SOLVING FOR ZETA FOR LAYER     1 ZONE     2
 SOLVING FOR ZETA FOR LAYER     2 ZONE     2
 SOLVING FOR ZETA FOR LAYER     3 ZONE     2
 
 SOLVING FOR HEAD 

 NO OUTPUT CONTROL FOR STRESS PERIOD    1   TIME STEP  470
 SOLVING FOR ZETA FOR LAYER     1 ZONE     2
 SOLVING FOR ZETA FOR LAYER     2 ZONE     2
 SOLVING FOR ZETA FOR LAYER     3 ZONE     2
 
 SOLVING FOR HEAD 

 NO OUTPUT CONTROL FOR STRESS PERIOD    1   TIME STEP  471
 SOLVING FOR ZETA FOR LAYER     1 ZONE     2
 SOLVING FOR ZETA FOR LAYER     2 ZONE     2
 SOLVING FOR ZETA FOR LAYER     3 ZONE     2
 
 SOLVING FOR HEAD 

 NO OUTPUT CONTROL FOR STRESS PERIOD    1   TIME STEP  472
 SOLVING FOR ZETA FOR LAYER     1 ZONE     2
 SOLVING FOR ZETA FOR LAYER     2 ZONE     2
 SOLVING FOR ZETA FOR LAYER     3 ZONE     2
 
 SOLVING FOR HEAD 

 NO OUTPUT CONTROL FOR STRESS PERIOD    1   TIME STEP  473
 SOLVING FOR ZETA FOR LAYER     1 ZONE     2
 SOLVING FOR ZETA FOR LAYER     2 ZONE     2
 SOLVING FOR ZETA FOR LAYER     3 ZONE     2
 
 SOLVING FOR HEAD 

 NO OUTPUT CONTROL FOR STRESS PERIOD    1   TIME STEP  474
 SOLVING FOR ZETA FOR LAYER     1 ZONE     2
 SOLVING FOR ZETA FOR LAYER     2 ZONE     2
 SOLVING FOR ZETA FOR LAYER     3 ZONE     2
 
 SOLVING FOR HEAD 

 NO OUTPUT CONTROL FOR STRESS PERIOD    1   TIME STEP  475
 SOLVING FOR ZETA FOR LAYER     1 ZONE     2
 SOLVING FOR ZETA FOR LAYER     2 ZONE     2
 SOLVING FOR ZETA FOR LAYER     3 ZONE     2
 
 SOLVING FOR HEAD 

 NO OUTPUT CONTROL FOR STRESS PERIOD    1   TIME STEP  476
 SOLVING FOR ZETA FOR LAYER     1 ZONE     2
 SOLVING FOR ZETA FOR LAYER     2 ZONE     2
 SOLVING FOR ZETA FOR LAYER     3 ZONE     2
 
 SOLVING FOR HEAD 

 NO OUTPUT CONTROL FOR STRESS PERIOD    1   TIME STEP  477
 SOLVING FOR ZETA FOR LAYER     1 ZONE     2
 SOLVING FOR ZETA FOR LAYER     2 ZONE     2
 SOLVING FOR ZETA FOR LAYER     3 ZONE     2
 
 SOLVING FOR HEAD 

 NO OUTPUT CONTROL FOR STRESS PERIOD    1   TIME STEP  478
 SOLVING FOR ZETA FOR LAYER     1 ZONE     2
 SOLVING FOR ZETA FOR LAYER     2 ZONE     2
 SOLVING FOR ZETA FOR LAYER     3 ZONE     2
 
 SOLVING FOR HEAD 

 NO OUTPUT CONTROL FOR STRESS PERIOD    1   TIME STEP  479
 SOLVING FOR ZETA FOR LAYER     1 ZONE     2
 SOLVING FOR ZETA FOR LAYER     2 ZONE     2
 SOLVING FOR ZETA FOR LAYER     3 ZONE     2
 
 SOLVING FOR HEAD 

 NO OUTPUT CONTROL FOR STRESS PERIOD    1   TIME STEP  480
 SOLVING FOR ZETA FOR LAYER     1 ZONE     2
 SOLVING FOR ZETA FOR LAYER     2 ZONE     2
 SOLVING FOR ZETA FOR LAYER     3 ZONE     2
 
 SOLVING FOR HEAD 

 NO OUTPUT CONTROL FOR STRESS PERIOD    1   TIME STEP  481
 SOLVING FOR ZETA FOR LAYER     1 ZONE     2
 SOLVING FOR ZETA FOR LAYER     2 ZONE     2
 SOLVING FOR ZETA FOR LAYER     3 ZONE     2
 
 SOLVING FOR HEAD 

 NO OUTPUT CONTROL FOR STRESS PERIOD    1   TIME STEP  482
 SOLVING FOR ZETA FOR LAYER     1 ZONE     2
 SOLVING FOR ZETA FOR LAYER     2 ZONE     2
 SOLVING FOR ZETA FOR LAYER     3 ZONE     2
 
 SOLVING FOR HEAD 

 NO OUTPUT CONTROL FOR STRESS PERIOD    1   TIME STEP  483
 SOLVING FOR ZETA FOR LAYER     1 ZONE     2
 SOLVING FOR ZETA FOR LAYER     2 ZONE     2
 SOLVING FOR ZETA FOR LAYER     3 ZONE     2
 
 SOLVING FOR HEAD 

 NO OUTPUT CONTROL FOR STRESS PERIOD    1   TIME STEP  484
 SOLVING FOR ZETA FOR LAYER     1 ZONE     2
 SOLVING FOR ZETA FOR LAYER     2 ZONE     2
 SOLVING FOR ZETA FOR LAYER     3 ZONE     2
 
 SOLVING FOR HEAD 

 NO OUTPUT CONTROL FOR STRESS PERIOD    1   TIME STEP  485
 SOLVING FOR ZETA FOR LAYER     1 ZONE     2
 SOLVING FOR ZETA FOR LAYER     2 ZONE     2
 SOLVING FOR ZETA FOR LAYER     3 ZONE     2
 
 SOLVING FOR HEAD 

 NO OUTPUT CONTROL FOR STRESS PERIOD    1   TIME STEP  486
 SOLVING FOR ZETA FOR LAYER     1 ZONE     2
 SOLVING FOR ZETA FOR LAYER     2 ZONE     2
 SOLVING FOR ZETA FOR LAYER     3 ZONE     2
 
 SOLVING FOR HEAD 

 NO OUTPUT CONTROL FOR STRESS PERIOD    1   TIME STEP  487
 SOLVING FOR ZETA FOR LAYER     1 ZONE     2
 SOLVING FOR ZETA FOR LAYER     2 ZONE     2
 SOLVING FOR ZETA FOR LAYER     3 ZONE     2
 
 SOLVING FOR HEAD 

 NO OUTPUT CONTROL FOR STRESS PERIOD    1   TIME STEP  488
 SOLVING FOR ZETA FOR LAYER     1 ZONE     2
 SOLVING FOR ZETA FOR LAYER     2 ZONE     2
 SOLVING FOR ZETA FOR LAYER     3 ZONE     2
 
 SOLVING FOR HEAD 

 NO OUTPUT CONTROL FOR STRESS PERIOD    1   TIME STEP  489
 SOLVING FOR ZETA FOR LAYER     1 ZONE     2
 SOLVING FOR ZETA FOR LAYER     2 ZONE     2
 SOLVING FOR ZETA FOR LAYER     3 ZONE     2
 
 SOLVING FOR HEAD 

 NO OUTPUT CONTROL FOR STRESS PERIOD    1   TIME STEP  490
 SOLVING FOR ZETA FOR LAYER     1 ZONE     2
 SOLVING FOR ZETA FOR LAYER     2 ZONE     2
 SOLVING FOR ZETA FOR LAYER     3 ZONE     2
 
 SOLVING FOR HEAD 

 NO OUTPUT CONTROL FOR STRESS PERIOD    1   TIME STEP  491
 SOLVING FOR ZETA FOR LAYER     1 ZONE     2
 SOLVING FOR ZETA FOR LAYER     2 ZONE     2
 SOLVING FOR ZETA FOR LAYER     3 ZONE     2
 
 SOLVING FOR HEAD 

 NO OUTPUT CONTROL FOR STRESS PERIOD    1   TIME STEP  492
 SOLVING FOR ZETA FOR LAYER     1 ZONE     2
 SOLVING FOR ZETA FOR LAYER     2 ZONE     2
 SOLVING FOR ZETA FOR LAYER     3 ZONE     2
 
 SOLVING FOR HEAD 

 NO OUTPUT CONTROL FOR STRESS PERIOD    1   TIME STEP  493
 SOLVING FOR ZETA FOR LAYER     1 ZONE     2
 SOLVING FOR ZETA FOR LAYER     2 ZONE     2
 SOLVING FOR ZETA FOR LAYER     3 ZONE     2
 
 SOLVING FOR HEAD 

 NO OUTPUT CONTROL FOR STRESS PERIOD    1   TIME STEP  494
 SOLVING FOR ZETA FOR LAYER     1 ZONE     2
 SOLVING FOR ZETA FOR LAYER     2 ZONE     2
 SOLVING FOR ZETA FOR LAYER     3 ZONE     2
 
 SOLVING FOR HEAD 

 NO OUTPUT CONTROL FOR STRESS PERIOD    1   TIME STEP  495
 SOLVING FOR ZETA FOR LAYER     1 ZONE     2
 SOLVING FOR ZETA FOR LAYER     2 ZONE     2
 SOLVING FOR ZETA FOR LAYER     3 ZONE     2
 
 SOLVING FOR HEAD 

 NO OUTPUT CONTROL FOR STRESS PERIOD    1   TIME STEP  496
 SOLVING FOR ZETA FOR LAYER     1 ZONE     2
 SOLVING FOR ZETA FOR LAYER     2 ZONE     2
 SOLVING FOR ZETA FOR LAYER     3 ZONE     2
 
 SOLVING FOR HEAD 

 NO OUTPUT CONTROL FOR STRESS PERIOD    1   TIME STEP  497
 SOLVING FOR ZETA FOR LAYER     1 ZONE     2
 SOLVING FOR ZETA FOR LAYER     2 ZONE     2
 SOLVING FOR ZETA FOR LAYER     3 ZONE     2
 
 SOLVING FOR HEAD 

 NO OUTPUT CONTROL FOR STRESS PERIOD    1   TIME STEP  498
 SOLVING FOR ZETA FOR LAYER     1 ZONE     2
 SOLVING FOR ZETA FOR LAYER     2 ZONE     2
 SOLVING FOR ZETA FOR LAYER     3 ZONE     2
 
 SOLVING FOR HEAD 

 NO OUTPUT CONTROL FOR STRESS PERIOD    1   TIME STEP  499
 SOLVING FOR ZETA FOR LAYER     1 ZONE     2
 SOLVING FOR ZETA FOR LAYER     2 ZONE     2
 SOLVING FOR ZETA FOR LAYER     3 ZONE     2
 
 SOLVING FOR HEAD 

 OUTPUT CONTROL FOR STRESS PERIOD    1   TIME STEP  500
    PRINT BUDGET
    SAVE HEAD FOR ALL LAYERS
 SOLVING FOR ZETA FOR LAYER     1 ZONE     2
 SOLVING FOR ZETA FOR LAYER     2 ZONE     2
 SOLVING FOR ZETA FOR LAYER     3 ZONE     2
 UBUDSV SAVING "      ZETASRF  1" ON UNIT 55 AT TIME STEP500, STRESS PERIOD    1


                      VOLUMETRIC SWI ZONE BUDGET FOR ENTIRE MODEL
                     AT END OF TIME STEP  500 IN STRESS PERIOD   1
                                      ZONE     1
  -----------------------------------------------------------------------------------

        CUMULATIVE VOLUMES      L**3       RATES FOR THIS TIME STEP      L**3/T
        ------------------                 ------------------------

              IN:                                      IN:
              ---                                      ---
             BOUNDARIES =   209600512.0000            BOUNDARIES =        5718.0625
          CONSTANT HEAD =           0.0000         CONSTANT HEAD =           0.0000
            ZONE CHANGE =     5494841.0000           ZONE CHANGE =         497.5248
       ZONE CHG TIP/TOE =   102754064.0000      ZONE CHG TIP/TOE =        5050.8901
            ZONE MIXING =      505748.2812           ZONE MIXING =          70.0995

               TOTAL IN =   318355168.0000              TOTAL IN =       11336.5771

             OUT:                                     OUT:
             ----                                     ----
             BOUNDARIES =   131577112.0000            BOUNDARIES =        5756.0273
          CONSTANT HEAD =           0.0000         CONSTANT HEAD =           0.0000
            ZONE CHANGE =   108457232.0000           ZONE CHANGE =        5482.8037
       ZONE CHG TIP/TOE =      222771.9219      ZONE CHG TIP/TOE =           3.6598
            ZONE MIXING =    29699016.0000           ZONE MIXING =         878.8879

              TOTAL OUT =   269956128.0000             TOTAL OUT =       12121.3789

               IN - OUT =    48399040.0000              IN - OUT =        -784.8018

    PERCENT DISCREPANCY =          16.45     PERCENT DISCREPANCY =          -6.69



                      VOLUMETRIC SWI ZONE BUDGET FOR ENTIRE MODEL
                     AT END OF TIME STEP  500 IN STRESS PERIOD   1
                                      ZONE     2
  -----------------------------------------------------------------------------------

        CUMULATIVE VOLUMES      L**3       RATES FOR THIS TIME STEP      L**3/T
        ------------------                 ------------------------

              IN:                                      IN:
              ---                                      ---
             BOUNDARIES =    37986044.0000            BOUNDARIES =        1637.9147
          CONSTANT HEAD =           0.0000         CONSTANT HEAD =           0.0000
            ZONE CHANGE =     5664664.0000           ZONE CHANGE =         433.7103
       ZONE CHG TIP/TOE =    59754496.0000      ZONE CHG TIP/TOE =        5792.7686
            ZONE MIXING =    29699016.0000           ZONE MIXING =         878.8879

               TOTAL IN =   133104216.0000              TOTAL IN =        8743.2812

             OUT:                                     OUT:
             ----                                     ----
             BOUNDARIES =   116136656.0000            BOUNDARIES =        1603.4156
          CONSTANT HEAD =           0.0000         CONSTANT HEAD =           0.0000
            ZONE CHANGE =    64981364.0000           ZONE CHANGE =        6281.1548
       ZONE CHG TIP/TOE =       60992.5234      ZONE CHG TIP/TOE =           1.9169
            ZONE MIXING =      505748.2812           ZONE MIXING =          70.0995

              TOTAL OUT =   181684752.0000             TOTAL OUT =        7956.5869

               IN - OUT =   -48580536.0000              IN - OUT =         786.6943

    PERCENT DISCREPANCY =         -30.87     PERCENT DISCREPANCY =           9.42


 HEAD WILL BE SAVED ON UNIT   51 AT END OF TIME STEP  500, STRESS PERIOD    1
1
  VOLUMETRIC BUDGET FOR ENTIRE MODEL AT END OF TIME STEP  500, STRESS PERIOD   1
  ------------------------------------------------------------------------------

     CUMULATIVE VOLUMES      L**3       RATES FOR THIS TIME STEP      L**3/T
     ------------------                 ------------------------

           IN:                                      IN:
           ---                                      ---
             STORAGE =           0.0000               STORAGE =           0.0000
       CONSTANT HEAD =           0.0000         CONSTANT HEAD =           0.0000
          SWIADDTOCH =           0.0000            SWIADDTOCH =           0.0000
               WELLS =           0.0000                 WELLS =           0.0000
     HEAD DEP BOUNDS =    33485398.0000       HEAD DEP BOUNDS =        1494.2147
            RECHARGE =   214101648.0000              RECHARGE =        5861.7627

            TOTAL IN =   247587040.0000              TOTAL IN =        7355.9775

          OUT:                                     OUT:
          ----                                     ----
             STORAGE =           0.0000               STORAGE =           0.0000
       CONSTANT HEAD =           0.0000         CONSTANT HEAD =           0.0000
          SWIADDTOCH =           0.0000            SWIADDTOCH =           0.0000
               WELLS =           0.0000                 WELLS =           0.0000
     HEAD DEP BOUNDS =   247713680.0000       HEAD DEP BOUNDS =        7359.4434
            RECHARGE =           0.0000              RECHARGE =           0.0000

           TOTAL OUT =   247713680.0000             TOTAL OUT =        7359.4434

            IN - OUT =     -126640.0000              IN - OUT =          -3.4658

 PERCENT DISCREPANCY =          -0.05     PERCENT DISCREPANCY =          -0.05






         TIME SUMMARY AT END OF TIME STEP  500 IN STRESS PERIOD    1
                    SECONDS     MINUTES      HOURS       DAYS        YEARS
                    -----------------------------------------------------------
   TIME STEP LENGTH 6.31152E+06 1.05192E+05  1753.2      73.050     0.20000    
 STRESS PERIOD TIME 3.15578E+09 5.25963E+07 8.76604E+05  36525.      100.00    
         TOTAL TIME 3.15578E+09 5.25963E+07 8.76604E+05  36525.      100.00    
1
 
 SOLVING FOR HEAD 

 NO OUTPUT CONTROL FOR STRESS PERIOD    1   TIME STEP  501
 SOLVING FOR ZETA FOR LAYER     1 ZONE     2
 SOLVING FOR ZETA FOR LAYER     2 ZONE     2
 SOLVING FOR ZETA FOR LAYER     3 ZONE     2
 
 SOLVING FOR HEAD 

 NO OUTPUT CONTROL FOR STRESS PERIOD    1   TIME STEP  502
 SOLVING FOR ZETA FOR LAYER     1 ZONE     2
 SOLVING FOR ZETA FOR LAYER     2 ZONE     2
 SOLVING FOR ZETA FOR LAYER     3 ZONE     2
 
 SOLVING FOR HEAD 

 NO OUTPUT CONTROL FOR STRESS PERIOD    1   TIME STEP  503
 SOLVING FOR ZETA FOR LAYER     1 ZONE     2
 SOLVING FOR ZETA FOR LAYER     2 ZONE     2
 SOLVING FOR ZETA FOR LAYER     3 ZONE     2
 
 SOLVING FOR HEAD 

 NO OUTPUT CONTROL FOR STRESS PERIOD    1   TIME STEP  504
 SOLVING FOR ZETA FOR LAYER     1 ZONE     2
 SOLVING FOR ZETA FOR LAYER     2 ZONE     2
 SOLVING FOR ZETA FOR LAYER     3 ZONE     2
 
 SOLVING FOR HEAD 

 NO OUTPUT CONTROL FOR STRESS PERIOD    1   TIME STEP  505
 SOLVING FOR ZETA FOR LAYER     1 ZONE     2
 SOLVING FOR ZETA FOR LAYER     2 ZONE     2
 SOLVING FOR ZETA FOR LAYER     3 ZONE     2
 
 SOLVING FOR HEAD 

 NO OUTPUT CONTROL FOR STRESS PERIOD    1   TIME STEP  506
 SOLVING FOR ZETA FOR LAYER     1 ZONE     2
 SOLVING FOR ZETA FOR LAYER     2 ZONE     2
 SOLVING FOR ZETA FOR LAYER     3 ZONE     2
 
 SOLVING FOR HEAD 

 NO OUTPUT CONTROL FOR STRESS PERIOD    1   TIME STEP  507
 SOLVING FOR ZETA FOR LAYER     1 ZONE     2
 SOLVING FOR ZETA FOR LAYER     2 ZONE     2
 SOLVING FOR ZETA FOR LAYER     3 ZONE     2
 
 SOLVING FOR HEAD 

 NO OUTPUT CONTROL FOR STRESS PERIOD    1   TIME STEP  508
 SOLVING FOR ZETA FOR LAYER     1 ZONE     2
 SOLVING FOR ZETA FOR LAYER     2 ZONE     2
 SOLVING FOR ZETA FOR LAYER     3 ZONE     2
 
 SOLVING FOR HEAD 

 NO OUTPUT CONTROL FOR STRESS PERIOD    1   TIME STEP  509
 SOLVING FOR ZETA FOR LAYER     1 ZONE     2
 SOLVING FOR ZETA FOR LAYER     2 ZONE     2
 SOLVING FOR ZETA FOR LAYER     3 ZONE     2
 
 SOLVING FOR HEAD 

 NO OUTPUT CONTROL FOR STRESS PERIOD    1   TIME STEP  510
 SOLVING FOR ZETA FOR LAYER     1 ZONE     2
 SOLVING FOR ZETA FOR LAYER     2 ZONE     2
 SOLVING FOR ZETA FOR LAYER     3 ZONE     2
 
 SOLVING FOR HEAD 

 NO OUTPUT CONTROL FOR STRESS PERIOD    1   TIME STEP  511
 SOLVING FOR ZETA FOR LAYER     1 ZONE     2
 SOLVING FOR ZETA FOR LAYER     2 ZONE     2
 SOLVING FOR ZETA FOR LAYER     3 ZONE     2
 
 SOLVING FOR HEAD 

 NO OUTPUT CONTROL FOR STRESS PERIOD    1   TIME STEP  512
 SOLVING FOR ZETA FOR LAYER     1 ZONE     2
 SOLVING FOR ZETA FOR LAYER     2 ZONE     2
 SOLVING FOR ZETA FOR LAYER     3 ZONE     2
 
 SOLVING FOR HEAD 

 NO OUTPUT CONTROL FOR STRESS PERIOD    1   TIME STEP  513
 SOLVING FOR ZETA FOR LAYER     1 ZONE     2
 SOLVING FOR ZETA FOR LAYER     2 ZONE     2
 SOLVING FOR ZETA FOR LAYER     3 ZONE     2
 
 SOLVING FOR HEAD 

 NO OUTPUT CONTROL FOR STRESS PERIOD    1   TIME STEP  514
 SOLVING FOR ZETA FOR LAYER     1 ZONE     2
 SOLVING FOR ZETA FOR LAYER     2 ZONE     2
 SOLVING FOR ZETA FOR LAYER     3 ZONE     2
 
 SOLVING FOR HEAD 

 NO OUTPUT CONTROL FOR STRESS PERIOD    1   TIME STEP  515
 SOLVING FOR ZETA FOR LAYER     1 ZONE     2
 SOLVING FOR ZETA FOR LAYER     2 ZONE     2
 SOLVING FOR ZETA FOR LAYER     3 ZONE     2
 
 SOLVING FOR HEAD 

 NO OUTPUT CONTROL FOR STRESS PERIOD    1   TIME STEP  516
 SOLVING FOR ZETA FOR LAYER     1 ZONE     2
 SOLVING FOR ZETA FOR LAYER     2 ZONE     2
 SOLVING FOR ZETA FOR LAYER     3 ZONE     2
 
 SOLVING FOR HEAD 

 NO OUTPUT CONTROL FOR STRESS PERIOD    1   TIME STEP  517
 SOLVING FOR ZETA FOR LAYER     1 ZONE     2
 SOLVING FOR ZETA FOR LAYER     2 ZONE     2
 SOLVING FOR ZETA FOR LAYER     3 ZONE     2
 
 SOLVING FOR HEAD 

 NO OUTPUT CONTROL FOR STRESS PERIOD    1   TIME STEP  518
 SOLVING FOR ZETA FOR LAYER     1 ZONE     2
 SOLVING FOR ZETA FOR LAYER     2 ZONE     2
 SOLVING FOR ZETA FOR LAYER     3 ZONE     2
 
 SOLVING FOR HEAD 

 NO OUTPUT CONTROL FOR STRESS PERIOD    1   TIME STEP  519
 SOLVING FOR ZETA FOR LAYER     1 ZONE     2
 SOLVING FOR ZETA FOR LAYER     2 ZONE     2
 SOLVING FOR ZETA FOR LAYER     3 ZONE     2
 
 SOLVING FOR HEAD 

 NO OUTPUT CONTROL FOR STRESS PERIOD    1   TIME STEP  520
 SOLVING FOR ZETA FOR LAYER     1 ZONE     2
 SOLVING FOR ZETA FOR LAYER     2 ZONE     2
 SOLVING FOR ZETA FOR LAYER     3 ZONE     2
 
 SOLVING FOR HEAD 

 NO OUTPUT CONTROL FOR STRESS PERIOD    1   TIME STEP  521
 SOLVING FOR ZETA FOR LAYER     1 ZONE     2
 SOLVING FOR ZETA FOR LAYER     2 ZONE     2
 SOLVING FOR ZETA FOR LAYER     3 ZONE     2
 
 SOLVING FOR HEAD 

 NO OUTPUT CONTROL FOR STRESS PERIOD    1   TIME STEP  522
 SOLVING FOR ZETA FOR LAYER     1 ZONE     2
 SOLVING FOR ZETA FOR LAYER     2 ZONE     2
 SOLVING FOR ZETA FOR LAYER     3 ZONE     2
 
 SOLVING FOR HEAD 

 NO OUTPUT CONTROL FOR STRESS PERIOD    1   TIME STEP  523
 SOLVING FOR ZETA FOR LAYER     1 ZONE     2
 SOLVING FOR ZETA FOR LAYER     2 ZONE     2
 SOLVING FOR ZETA FOR LAYER     3 ZONE     2
 
 SOLVING FOR HEAD 

 NO OUTPUT CONTROL FOR STRESS PERIOD    1   TIME STEP  524
 SOLVING FOR ZETA FOR LAYER     1 ZONE     2
 SOLVING FOR ZETA FOR LAYER     2 ZONE     2
 SOLVING FOR ZETA FOR LAYER     3 ZONE     2
 
 SOLVING FOR HEAD 

 NO OUTPUT CONTROL FOR STRESS PERIOD    1   TIME STEP  525
 SOLVING FOR ZETA FOR LAYER     1 ZONE     2
 SOLVING FOR ZETA FOR LAYER     2 ZONE     2
 SOLVING FOR ZETA FOR LAYER     3 ZONE     2
 
 SOLVING FOR HEAD 

 NO OUTPUT CONTROL FOR STRESS PERIOD    1   TIME STEP  526
 SOLVING FOR ZETA FOR LAYER     1 ZONE     2
 SOLVING FOR ZETA FOR LAYER     2 ZONE     2
 SOLVING FOR ZETA FOR LAYER     3 ZONE     2
 
 SOLVING FOR HEAD 

 NO OUTPUT CONTROL FOR STRESS PERIOD    1   TIME STEP  527
 SOLVING FOR ZETA FOR LAYER     1 ZONE     2
 SOLVING FOR ZETA FOR LAYER     2 ZONE     2
 SOLVING FOR ZETA FOR LAYER     3 ZONE     2
 
 SOLVING FOR HEAD 

 NO OUTPUT CONTROL FOR STRESS PERIOD    1   TIME STEP  528
 SOLVING FOR ZETA FOR LAYER     1 ZONE     2
 SOLVING FOR ZETA FOR LAYER     2 ZONE     2
 SOLVING FOR ZETA FOR LAYER     3 ZONE     2
 
 SOLVING FOR HEAD 

 NO OUTPUT CONTROL FOR STRESS PERIOD    1   TIME STEP  529
 SOLVING FOR ZETA FOR LAYER     1 ZONE     2
 SOLVING FOR ZETA FOR LAYER     2 ZONE     2
 SOLVING FOR ZETA FOR LAYER     3 ZONE     2
 
 SOLVING FOR HEAD 

 NO OUTPUT CONTROL FOR STRESS PERIOD    1   TIME STEP  530
 SOLVING FOR ZETA FOR LAYER     1 ZONE     2
 SOLVING FOR ZETA FOR LAYER     2 ZONE     2
 SOLVING FOR ZETA FOR LAYER     3 ZONE     2
 
 SOLVING FOR HEAD 

 NO OUTPUT CONTROL FOR STRESS PERIOD    1   TIME STEP  531
 SOLVING FOR ZETA FOR LAYER     1 ZONE     2
 SOLVING FOR ZETA FOR LAYER     2 ZONE     2
 SOLVING FOR ZETA FOR LAYER     3 ZONE     2
 
 SOLVING FOR HEAD 

 NO OUTPUT CONTROL FOR STRESS PERIOD    1   TIME STEP  532
 SOLVING FOR ZETA FOR LAYER     1 ZONE     2
 SOLVING FOR ZETA FOR LAYER     2 ZONE     2
 SOLVING FOR ZETA FOR LAYER     3 ZONE     2
 
 SOLVING FOR HEAD 

 NO OUTPUT CONTROL FOR STRESS PERIOD    1   TIME STEP  533
 SOLVING FOR ZETA FOR LAYER     1 ZONE     2
 SOLVING FOR ZETA FOR LAYER     2 ZONE     2
 SOLVING FOR ZETA FOR LAYER     3 ZONE     2
 
 SOLVING FOR HEAD 

 NO OUTPUT CONTROL FOR STRESS PERIOD    1   TIME STEP  534
 SOLVING FOR ZETA FOR LAYER     1 ZONE     2
 SOLVING FOR ZETA FOR LAYER     2 ZONE     2
 SOLVING FOR ZETA FOR LAYER     3 ZONE     2
 
 SOLVING FOR HEAD 

 NO OUTPUT CONTROL FOR STRESS PERIOD    1   TIME STEP  535
 SOLVING FOR ZETA FOR LAYER     1 ZONE     2
 SOLVING FOR ZETA FOR LAYER     2 ZONE     2
 SOLVING FOR ZETA FOR LAYER     3 ZONE     2
 
 SOLVING FOR HEAD 

 NO OUTPUT CONTROL FOR STRESS PERIOD    1   TIME STEP  536
 SOLVING FOR ZETA FOR LAYER     1 ZONE     2
 SOLVING FOR ZETA FOR LAYER     2 ZONE     2
 SOLVING FOR ZETA FOR LAYER     3 ZONE     2
 
 SOLVING FOR HEAD 

 NO OUTPUT CONTROL FOR STRESS PERIOD    1   TIME STEP  537
 SOLVING FOR ZETA FOR LAYER     1 ZONE     2
 SOLVING FOR ZETA FOR LAYER     2 ZONE     2
 SOLVING FOR ZETA FOR LAYER     3 ZONE     2
 
 SOLVING FOR HEAD 

 NO OUTPUT CONTROL FOR STRESS PERIOD    1   TIME STEP  538
 SOLVING FOR ZETA FOR LAYER     1 ZONE     2
 SOLVING FOR ZETA FOR LAYER     2 ZONE     2
 SOLVING FOR ZETA FOR LAYER     3 ZONE     2
 
 SOLVING FOR HEAD 

 NO OUTPUT CONTROL FOR STRESS PERIOD    1   TIME STEP  539
 SOLVING FOR ZETA FOR LAYER     1 ZONE     2
 SOLVING FOR ZETA FOR LAYER     2 ZONE     2
 SOLVING FOR ZETA FOR LAYER     3 ZONE     2
 
 SOLVING FOR HEAD 

 NO OUTPUT CONTROL FOR STRESS PERIOD    1   TIME STEP  540
 SOLVING FOR ZETA FOR LAYER     1 ZONE     2
 SOLVING FOR ZETA FOR LAYER     2 ZONE     2
 SOLVING FOR ZETA FOR LAYER     3 ZONE     2
 
 SOLVING FOR HEAD 

 NO OUTPUT CONTROL FOR STRESS PERIOD    1   TIME STEP  541
 SOLVING FOR ZETA FOR LAYER     1 ZONE     2
 SOLVING FOR ZETA FOR LAYER     2 ZONE     2
 SOLVING FOR ZETA FOR LAYER     3 ZONE     2
 
 SOLVING FOR HEAD 

 NO OUTPUT CONTROL FOR STRESS PERIOD    1   TIME STEP  542
 SOLVING FOR ZETA FOR LAYER     1 ZONE     2
 SOLVING FOR ZETA FOR LAYER     2 ZONE     2
 SOLVING FOR ZETA FOR LAYER     3 ZONE     2
 
 SOLVING FOR HEAD 

 NO OUTPUT CONTROL FOR STRESS PERIOD    1   TIME STEP  543
 SOLVING FOR ZETA FOR LAYER     1 ZONE     2
 SOLVING FOR ZETA FOR LAYER     2 ZONE     2
 SOLVING FOR ZETA FOR LAYER     3 ZONE     2
 
 SOLVING FOR HEAD 

 NO OUTPUT CONTROL FOR STRESS PERIOD    1   TIME STEP  544
 SOLVING FOR ZETA FOR LAYER     1 ZONE     2
 SOLVING FOR ZETA FOR LAYER     2 ZONE     2
 SOLVING FOR ZETA FOR LAYER     3 ZONE     2
 
 SOLVING FOR HEAD 

 NO OUTPUT CONTROL FOR STRESS PERIOD    1   TIME STEP  545
 SOLVING FOR ZETA FOR LAYER     1 ZONE     2
 SOLVING FOR ZETA FOR LAYER     2 ZONE     2
 SOLVING FOR ZETA FOR LAYER     3 ZONE     2
 
 SOLVING FOR HEAD 

 NO OUTPUT CONTROL FOR STRESS PERIOD    1   TIME STEP  546
 SOLVING FOR ZETA FOR LAYER     1 ZONE     2
 SOLVING FOR ZETA FOR LAYER     2 ZONE     2
 SOLVING FOR ZETA FOR LAYER     3 ZONE     2
 
 SOLVING FOR HEAD 

 NO OUTPUT CONTROL FOR STRESS PERIOD    1   TIME STEP  547
 SOLVING FOR ZETA FOR LAYER     1 ZONE     2
 SOLVING FOR ZETA FOR LAYER     2 ZONE     2
 SOLVING FOR ZETA FOR LAYER     3 ZONE     2
 
 SOLVING FOR HEAD 

 NO OUTPUT CONTROL FOR STRESS PERIOD    1   TIME STEP  548
 SOLVING FOR ZETA FOR LAYER     1 ZONE     2
 SOLVING FOR ZETA FOR LAYER     2 ZONE     2
 SOLVING FOR ZETA FOR LAYER     3 ZONE     2
 
 SOLVING FOR HEAD 

 NO OUTPUT CONTROL FOR STRESS PERIOD    1   TIME STEP  549
 SOLVING FOR ZETA FOR LAYER     1 ZONE     2
 SOLVING FOR ZETA FOR LAYER     2 ZONE     2
 SOLVING FOR ZETA FOR LAYER     3 ZONE     2
 
 SOLVING FOR HEAD 

 NO OUTPUT CONTROL FOR STRESS PERIOD    1   TIME STEP  550
 SOLVING FOR ZETA FOR LAYER     1 ZONE     2
 SOLVING FOR ZETA FOR LAYER     2 ZONE     2
 SOLVING FOR ZETA FOR LAYER     3 ZONE     2
 
 SOLVING FOR HEAD 

 NO OUTPUT CONTROL FOR STRESS PERIOD    1   TIME STEP  551
 SOLVING FOR ZETA FOR LAYER     1 ZONE     2
 SOLVING FOR ZETA FOR LAYER     2 ZONE     2
 SOLVING FOR ZETA FOR LAYER     3 ZONE     2
 
 SOLVING FOR HEAD 

 NO OUTPUT CONTROL FOR STRESS PERIOD    1   TIME STEP  552
 SOLVING FOR ZETA FOR LAYER     1 ZONE     2
 SOLVING FOR ZETA FOR LAYER     2 ZONE     2
 SOLVING FOR ZETA FOR LAYER     3 ZONE     2
 
 SOLVING FOR HEAD 

 NO OUTPUT CONTROL FOR STRESS PERIOD    1   TIME STEP  553
 SOLVING FOR ZETA FOR LAYER     1 ZONE     2
 SOLVING FOR ZETA FOR LAYER     2 ZONE     2
 SOLVING FOR ZETA FOR LAYER     3 ZONE     2
 
 SOLVING FOR HEAD 

 NO OUTPUT CONTROL FOR STRESS PERIOD    1   TIME STEP  554
 SOLVING FOR ZETA FOR LAYER     1 ZONE     2
 SOLVING FOR ZETA FOR LAYER     2 ZONE     2
 SOLVING FOR ZETA FOR LAYER     3 ZONE     2
 
 SOLVING FOR HEAD 

 NO OUTPUT CONTROL FOR STRESS PERIOD    1   TIME STEP  555
 SOLVING FOR ZETA FOR LAYER     1 ZONE     2
 SOLVING FOR ZETA FOR LAYER     2 ZONE     2
 SOLVING FOR ZETA FOR LAYER     3 ZONE     2
 
 SOLVING FOR HEAD 

 NO OUTPUT CONTROL FOR STRESS PERIOD    1   TIME STEP  556
 SOLVING FOR ZETA FOR LAYER     1 ZONE     2
 SOLVING FOR ZETA FOR LAYER     2 ZONE     2
 SOLVING FOR ZETA FOR LAYER     3 ZONE     2
 
 SOLVING FOR HEAD 

 NO OUTPUT CONTROL FOR STRESS PERIOD    1   TIME STEP  557
 SOLVING FOR ZETA FOR LAYER     1 ZONE     2
 SOLVING FOR ZETA FOR LAYER     2 ZONE     2
 SOLVING FOR ZETA FOR LAYER     3 ZONE     2
 
 SOLVING FOR HEAD 

 NO OUTPUT CONTROL FOR STRESS PERIOD    1   TIME STEP  558
 SOLVING FOR ZETA FOR LAYER     1 ZONE     2
 SOLVING FOR ZETA FOR LAYER     2 ZONE     2
 SOLVING FOR ZETA FOR LAYER     3 ZONE     2
 
 SOLVING FOR HEAD 

 NO OUTPUT CONTROL FOR STRESS PERIOD    1   TIME STEP  559
 SOLVING FOR ZETA FOR LAYER     1 ZONE     2
 SOLVING FOR ZETA FOR LAYER     2 ZONE     2
 SOLVING FOR ZETA FOR LAYER     3 ZONE     2
 
 SOLVING FOR HEAD 

 NO OUTPUT CONTROL FOR STRESS PERIOD    1   TIME STEP  560
 SOLVING FOR ZETA FOR LAYER     1 ZONE     2
 SOLVING FOR ZETA FOR LAYER     2 ZONE     2
 SOLVING FOR ZETA FOR LAYER     3 ZONE     2
 
 SOLVING FOR HEAD 

 NO OUTPUT CONTROL FOR STRESS PERIOD    1   TIME STEP  561
 SOLVING FOR ZETA FOR LAYER     1 ZONE     2
 SOLVING FOR ZETA FOR LAYER     2 ZONE     2
 SOLVING FOR ZETA FOR LAYER     3 ZONE     2
 
 SOLVING FOR HEAD 

 NO OUTPUT CONTROL FOR STRESS PERIOD    1   TIME STEP  562
 SOLVING FOR ZETA FOR LAYER     1 ZONE     2
 SOLVING FOR ZETA FOR LAYER     2 ZONE     2
 SOLVING FOR ZETA FOR LAYER     3 ZONE     2
 
 SOLVING FOR HEAD 

 NO OUTPUT CONTROL FOR STRESS PERIOD    1   TIME STEP  563
 SOLVING FOR ZETA FOR LAYER     1 ZONE     2
 SOLVING FOR ZETA FOR LAYER     2 ZONE     2
 SOLVING FOR ZETA FOR LAYER     3 ZONE     2
 
 SOLVING FOR HEAD 

 NO OUTPUT CONTROL FOR STRESS PERIOD    1   TIME STEP  564
 SOLVING FOR ZETA FOR LAYER     1 ZONE     2
 SOLVING FOR ZETA FOR LAYER     2 ZONE     2
 SOLVING FOR ZETA FOR LAYER     3 ZONE     2
 
 SOLVING FOR HEAD 

 NO OUTPUT CONTROL FOR STRESS PERIOD    1   TIME STEP  565
 SOLVING FOR ZETA FOR LAYER     1 ZONE     2
 SOLVING FOR ZETA FOR LAYER     2 ZONE     2
 SOLVING FOR ZETA FOR LAYER     3 ZONE     2
 
 SOLVING FOR HEAD 

 NO OUTPUT CONTROL FOR STRESS PERIOD    1   TIME STEP  566
 SOLVING FOR ZETA FOR LAYER     1 ZONE     2
 SOLVING FOR ZETA FOR LAYER     2 ZONE     2
 SOLVING FOR ZETA FOR LAYER     3 ZONE     2
 
 SOLVING FOR HEAD 

 NO OUTPUT CONTROL FOR STRESS PERIOD    1   TIME STEP  567
 SOLVING FOR ZETA FOR LAYER     1 ZONE     2
 SOLVING FOR ZETA FOR LAYER     2 ZONE     2
 SOLVING FOR ZETA FOR LAYER     3 ZONE     2
 
 SOLVING FOR HEAD 

 NO OUTPUT CONTROL FOR STRESS PERIOD    1   TIME STEP  568
 SOLVING FOR ZETA FOR LAYER     1 ZONE     2
 SOLVING FOR ZETA FOR LAYER     2 ZONE     2
 SOLVING FOR ZETA FOR LAYER     3 ZONE     2
 
 SOLVING FOR HEAD 

 NO OUTPUT CONTROL FOR STRESS PERIOD    1   TIME STEP  569
 SOLVING FOR ZETA FOR LAYER     1 ZONE     2
 SOLVING FOR ZETA FOR LAYER     2 ZONE     2
 SOLVING FOR ZETA FOR LAYER     3 ZONE     2
 
 SOLVING FOR HEAD 

 NO OUTPUT CONTROL FOR STRESS PERIOD    1   TIME STEP  570
 SOLVING FOR ZETA FOR LAYER     1 ZONE     2
 SOLVING FOR ZETA FOR LAYER     2 ZONE     2
 SOLVING FOR ZETA FOR LAYER     3 ZONE     2
 
 SOLVING FOR HEAD 

 NO OUTPUT CONTROL FOR STRESS PERIOD    1   TIME STEP  571
 SOLVING FOR ZETA FOR LAYER     1 ZONE     2
 SOLVING FOR ZETA FOR LAYER     2 ZONE     2
 SOLVING FOR ZETA FOR LAYER     3 ZONE     2
 
 SOLVING FOR HEAD 

 NO OUTPUT CONTROL FOR STRESS PERIOD    1   TIME STEP  572
 SOLVING FOR ZETA FOR LAYER     1 ZONE     2
 SOLVING FOR ZETA FOR LAYER     2 ZONE     2
 SOLVING FOR ZETA FOR LAYER     3 ZONE     2
 
 SOLVING FOR HEAD 

 NO OUTPUT CONTROL FOR STRESS PERIOD    1   TIME STEP  573
 SOLVING FOR ZETA FOR LAYER     1 ZONE     2
 SOLVING FOR ZETA FOR LAYER     2 ZONE     2
 SOLVING FOR ZETA FOR LAYER     3 ZONE     2
 
 SOLVING FOR HEAD 

 NO OUTPUT CONTROL FOR STRESS PERIOD    1   TIME STEP  574
 SOLVING FOR ZETA FOR LAYER     1 ZONE     2
 SOLVING FOR ZETA FOR LAYER     2 ZONE     2
 SOLVING FOR ZETA FOR LAYER     3 ZONE     2
 
 SOLVING FOR HEAD 

 NO OUTPUT CONTROL FOR STRESS PERIOD    1   TIME STEP  575
 SOLVING FOR ZETA FOR LAYER     1 ZONE     2
 SOLVING FOR ZETA FOR LAYER     2 ZONE     2
 SOLVING FOR ZETA FOR LAYER     3 ZONE     2
 
 SOLVING FOR HEAD 

 NO OUTPUT CONTROL FOR STRESS PERIOD    1   TIME STEP  576
 SOLVING FOR ZETA FOR LAYER     1 ZONE     2
 SOLVING FOR ZETA FOR LAYER     2 ZONE     2
 SOLVING FOR ZETA FOR LAYER     3 ZONE     2
 
 SOLVING FOR HEAD 

 NO OUTPUT CONTROL FOR STRESS PERIOD    1   TIME STEP  577
 SOLVING FOR ZETA FOR LAYER     1 ZONE     2
 SOLVING FOR ZETA FOR LAYER     2 ZONE     2
 SOLVING FOR ZETA FOR LAYER     3 ZONE     2
 
 SOLVING FOR HEAD 

 NO OUTPUT CONTROL FOR STRESS PERIOD    1   TIME STEP  578
 SOLVING FOR ZETA FOR LAYER     1 ZONE     2
 SOLVING FOR ZETA FOR LAYER     2 ZONE     2
 SOLVING FOR ZETA FOR LAYER     3 ZONE     2
 
 SOLVING FOR HEAD 

 NO OUTPUT CONTROL FOR STRESS PERIOD    1   TIME STEP  579
 SOLVING FOR ZETA FOR LAYER     1 ZONE     2
 SOLVING FOR ZETA FOR LAYER     2 ZONE     2
 SOLVING FOR ZETA FOR LAYER     3 ZONE     2
 
 SOLVING FOR HEAD 

 NO OUTPUT CONTROL FOR STRESS PERIOD    1   TIME STEP  580
 SOLVING FOR ZETA FOR LAYER     1 ZONE     2
 SOLVING FOR ZETA FOR LAYER     2 ZONE     2
 SOLVING FOR ZETA FOR LAYER     3 ZONE     2
 
 SOLVING FOR HEAD 

 NO OUTPUT CONTROL FOR STRESS PERIOD    1   TIME STEP  581
 SOLVING FOR ZETA FOR LAYER     1 ZONE     2
 SOLVING FOR ZETA FOR LAYER     2 ZONE     2
 SOLVING FOR ZETA FOR LAYER     3 ZONE     2
 
 SOLVING FOR HEAD 

 NO OUTPUT CONTROL FOR STRESS PERIOD    1   TIME STEP  582
 SOLVING FOR ZETA FOR LAYER     1 ZONE     2
 SOLVING FOR ZETA FOR LAYER     2 ZONE     2
 SOLVING FOR ZETA FOR LAYER     3 ZONE     2
 
 SOLVING FOR HEAD 

 NO OUTPUT CONTROL FOR STRESS PERIOD    1   TIME STEP  583
 SOLVING FOR ZETA FOR LAYER     1 ZONE     2
 SOLVING FOR ZETA FOR LAYER     2 ZONE     2
 SOLVING FOR ZETA FOR LAYER     3 ZONE     2
 
 SOLVING FOR HEAD 

 NO OUTPUT CONTROL FOR STRESS PERIOD    1   TIME STEP  584
 SOLVING FOR ZETA FOR LAYER     1 ZONE     2
 SOLVING FOR ZETA FOR LAYER     2 ZONE     2
 SOLVING FOR ZETA FOR LAYER     3 ZONE     2
 
 SOLVING FOR HEAD 

 NO OUTPUT CONTROL FOR STRESS PERIOD    1   TIME STEP  585
 SOLVING FOR ZETA FOR LAYER     1 ZONE     2
 SOLVING FOR ZETA FOR LAYER     2 ZONE     2
 SOLVING FOR ZETA FOR LAYER     3 ZONE     2
 
 SOLVING FOR HEAD 

 NO OUTPUT CONTROL FOR STRESS PERIOD    1   TIME STEP  586
 SOLVING FOR ZETA FOR LAYER     1 ZONE     2
 SOLVING FOR ZETA FOR LAYER     2 ZONE     2
 SOLVING FOR ZETA FOR LAYER     3 ZONE     2
 
 SOLVING FOR HEAD 

 NO OUTPUT CONTROL FOR STRESS PERIOD    1   TIME STEP  587
 SOLVING FOR ZETA FOR LAYER     1 ZONE     2
 SOLVING FOR ZETA FOR LAYER     2 ZONE     2
 SOLVING FOR ZETA FOR LAYER     3 ZONE     2
 
 SOLVING FOR HEAD 

 NO OUTPUT CONTROL FOR STRESS PERIOD    1   TIME STEP  588
 SOLVING FOR ZETA FOR LAYER     1 ZONE     2
 SOLVING FOR ZETA FOR LAYER     2 ZONE     2
 SOLVING FOR ZETA FOR LAYER     3 ZONE     2
 
 SOLVING FOR HEAD 

 NO OUTPUT CONTROL FOR STRESS PERIOD    1   TIME STEP  589
 SOLVING FOR ZETA FOR LAYER     1 ZONE     2
 SOLVING FOR ZETA FOR LAYER     2 ZONE     2
 SOLVING FOR ZETA FOR LAYER     3 ZONE     2
 
 SOLVING FOR HEAD 

 NO OUTPUT CONTROL FOR STRESS PERIOD    1   TIME STEP  590
 SOLVING FOR ZETA FOR LAYER     1 ZONE     2
 SOLVING FOR ZETA FOR LAYER     2 ZONE     2
 SOLVING FOR ZETA FOR LAYER     3 ZONE     2
 
 SOLVING FOR HEAD 

 NO OUTPUT CONTROL FOR STRESS PERIOD    1   TIME STEP  591
 SOLVING FOR ZETA FOR LAYER     1 ZONE     2
 SOLVING FOR ZETA FOR LAYER     2 ZONE     2
 SOLVING FOR ZETA FOR LAYER     3 ZONE     2
 
 SOLVING FOR HEAD 

 NO OUTPUT CONTROL FOR STRESS PERIOD    1   TIME STEP  592
 SOLVING FOR ZETA FOR LAYER     1 ZONE     2
 SOLVING FOR ZETA FOR LAYER     2 ZONE     2
 SOLVING FOR ZETA FOR LAYER     3 ZONE     2
 
 SOLVING FOR HEAD 

 NO OUTPUT CONTROL FOR STRESS PERIOD    1   TIME STEP  593
 SOLVING FOR ZETA FOR LAYER     1 ZONE     2
 SOLVING FOR ZETA FOR LAYER     2 ZONE     2
 SOLVING FOR ZETA FOR LAYER     3 ZONE     2
 
 SOLVING FOR HEAD 

 NO OUTPUT CONTROL FOR STRESS PERIOD    1   TIME STEP  594
 SOLVING FOR ZETA FOR LAYER     1 ZONE     2
 SOLVING FOR ZETA FOR LAYER     2 ZONE     2
 SOLVING FOR ZETA FOR LAYER     3 ZONE     2
 
 SOLVING FOR HEAD 

 NO OUTPUT CONTROL FOR STRESS PERIOD    1   TIME STEP  595
 SOLVING FOR ZETA FOR LAYER     1 ZONE     2
 SOLVING FOR ZETA FOR LAYER     2 ZONE     2
 SOLVING FOR ZETA FOR LAYER     3 ZONE     2
 
 SOLVING FOR HEAD 

 NO OUTPUT CONTROL FOR STRESS PERIOD    1   TIME STEP  596
 SOLVING FOR ZETA FOR LAYER     1 ZONE     2
 SOLVING FOR ZETA FOR LAYER     2 ZONE     2
 SOLVING FOR ZETA FOR LAYER     3 ZONE     2
 
 SOLVING FOR HEAD 

 NO OUTPUT CONTROL FOR STRESS PERIOD    1   TIME STEP  597
 SOLVING FOR ZETA FOR LAYER     1 ZONE     2
 SOLVING FOR ZETA FOR LAYER     2 ZONE     2
 SOLVING FOR ZETA FOR LAYER     3 ZONE     2
 
 SOLVING FOR HEAD 

 NO OUTPUT CONTROL FOR STRESS PERIOD    1   TIME STEP  598
 SOLVING FOR ZETA FOR LAYER     1 ZONE     2
 SOLVING FOR ZETA FOR LAYER     2 ZONE     2
 SOLVING FOR ZETA FOR LAYER     3 ZONE     2
 
 SOLVING FOR HEAD 

 NO OUTPUT CONTROL FOR STRESS PERIOD    1   TIME STEP  599
 SOLVING FOR ZETA FOR LAYER     1 ZONE     2
 SOLVING FOR ZETA FOR LAYER     2 ZONE     2
 SOLVING FOR ZETA FOR LAYER     3 ZONE     2
 
 SOLVING FOR HEAD 

 OUTPUT CONTROL FOR STRESS PERIOD    1   TIME STEP  600
    PRINT BUDGET
    SAVE HEAD FOR ALL LAYERS
 SOLVING FOR ZETA FOR LAYER     1 ZONE     2
 SOLVING FOR ZETA FOR LAYER     2 ZONE     2
 SOLVING FOR ZETA FOR LAYER     3 ZONE     2
 UBUDSV SAVING "      ZETASRF  1" ON UNIT 55 AT TIME STEP600, STRESS PERIOD    1


                      VOLUMETRIC SWI ZONE BUDGET FOR ENTIRE MODEL
                     AT END OF TIME STEP  600 IN STRESS PERIOD   1
                                      ZONE     1
  -----------------------------------------------------------------------------------

        CUMULATIVE VOLUMES      L**3       RATES FOR THIS TIME STEP      L**3/T
        ------------------                 ------------------------

              IN:                                      IN:
              ---                                      ---
             BOUNDARIES =   251325968.0000            BOUNDARIES =        5697.1064
          CONSTANT HEAD =           0.0000         CONSTANT HEAD =           0.0000
            ZONE CHANGE =     8607619.0000           ZONE CHANGE =         257.5525
       ZONE CHG TIP/TOE =   142814928.0000      ZONE CHG TIP/TOE =        2072.7603
            ZONE MIXING =      892454.5625           ZONE MIXING =          16.8875

               TOTAL IN =   403640960.0000              TOTAL IN =        8044.3071

             OUT:                                     OUT:
             ----                                     ----
             BOUNDARIES =   160831824.0000            BOUNDARIES =        5319.6733
          CONSTANT HEAD =           0.0000         CONSTANT HEAD =           0.0000
            ZONE CHANGE =   151563632.0000           ZONE CHANGE =        2245.5332
       ZONE CHG TIP/TOE =      252326.5938      ZONE CHG TIP/TOE =           3.2825
            ZONE MIXING =    37104616.0000           ZONE MIXING =         701.6246

              TOTAL OUT =   349752384.0000             TOTAL OUT =        8270.1143

               IN - OUT =    53888576.0000              IN - OUT =        -225.8071

    PERCENT DISCREPANCY =          14.31     PERCENT DISCREPANCY =          -2.77



                      VOLUMETRIC SWI ZONE BUDGET FOR ENTIRE MODEL
                     AT END OF TIME STEP  600 IN STRESS PERIOD   1
                                      ZONE     2
  -----------------------------------------------------------------------------------

        CUMULATIVE VOLUMES      L**3       RATES FOR THIS TIME STEP      L**3/T
        ------------------                 ------------------------

              IN:                                      IN:
              ---                                      ---
             BOUNDARIES =    49324128.0000            BOUNDARIES =        1355.5070
          CONSTANT HEAD =           0.0000         CONSTANT HEAD =           0.0000
            ZONE CHANGE =     8709626.0000           ZONE CHANGE =         173.9556
       ZONE CHG TIP/TOE =    94981128.0000      ZONE CHG TIP/TOE =        2467.9272
            ZONE MIXING =    37104616.0000           ZONE MIXING =         701.6246

               TOTAL IN =   190119488.0000              TOTAL IN =        4699.0142

             OUT:                                     OUT:
             ----                                     ----
             BOUNDARIES =   139970512.0000            BOUNDARIES =        1736.4364
          CONSTANT HEAD =           0.0000         CONSTANT HEAD =           0.0000
            ZONE CHANGE =   103272488.0000           ZONE CHANGE =        2717.6919
       ZONE CHG TIP/TOE =       79493.1953      ZONE CHG TIP/TOE =           1.4664
            ZONE MIXING =      892454.5625           ZONE MIXING =          16.8875

              TOTAL OUT =   244214944.0000             TOTAL OUT =        4472.4824

               IN - OUT =   -54095456.0000              IN - OUT =         226.5317

    PERCENT DISCREPANCY =         -24.91     PERCENT DISCREPANCY =           4.94


 HEAD WILL BE SAVED ON UNIT   51 AT END OF TIME STEP  600, STRESS PERIOD    1
1
  VOLUMETRIC BUDGET FOR ENTIRE MODEL AT END OF TIME STEP  600, STRESS PERIOD   1
  ------------------------------------------------------------------------------

     CUMULATIVE VOLUMES      L**3       RATES FOR THIS TIME STEP      L**3/T
     ------------------                 ------------------------

           IN:                                      IN:
           ---                                      ---
             STORAGE =           0.0000               STORAGE =           0.0000
       CONSTANT HEAD =           0.0000         CONSTANT HEAD =           0.0000
          SWIADDTOCH =           0.0000            SWIADDTOCH =           0.0000
               WELLS =           0.0000                 WELLS =           0.0000
     HEAD DEP BOUNDS =    43728592.0000       HEAD DEP BOUNDS =        1190.8507
            RECHARGE =   256922448.0000              RECHARGE =        5861.7627

            TOTAL IN =   300651040.0000              TOTAL IN =        7052.6133

          OUT:                                     OUT:
          ----                                     ----
             STORAGE =           0.0000               STORAGE =           0.0000
       CONSTANT HEAD =           0.0000         CONSTANT HEAD =           0.0000
          SWIADDTOCH =           0.0000            SWIADDTOCH =           0.0000
               WELLS =           0.0000                 WELLS =           0.0000
     HEAD DEP BOUNDS =   300802336.0000       HEAD DEP BOUNDS =        7056.1099
            RECHARGE =           0.0000              RECHARGE =           0.0000

           TOTAL OUT =   300802336.0000             TOTAL OUT =        7056.1099

            IN - OUT =     -151296.0000              IN - OUT =          -3.4966

 PERCENT DISCREPANCY =          -0.05     PERCENT DISCREPANCY =          -0.05






         TIME SUMMARY AT END OF TIME STEP  600 IN STRESS PERIOD    1
                    SECONDS     MINUTES      HOURS       DAYS        YEARS
                    -----------------------------------------------------------
   TIME STEP LENGTH 6.31152E+06 1.05192E+05  1753.2      73.050     0.20000    
 STRESS PERIOD TIME 3.78693E+09 6.31156E+07 1.05193E+06  43830.      120.00    
         TOTAL TIME 3.78693E+09 6.31156E+07 1.05193E+06  43830.      120.00    
1
 
 SOLVING FOR HEAD 

 NO OUTPUT CONTROL FOR STRESS PERIOD    1   TIME STEP  601
 SOLVING FOR ZETA FOR LAYER     1 ZONE     2
 SOLVING FOR ZETA FOR LAYER     2 ZONE     2
 SOLVING FOR ZETA FOR LAYER     3 ZONE     2
 
 SOLVING FOR HEAD 

 NO OUTPUT CONTROL FOR STRESS PERIOD    1   TIME STEP  602
 SOLVING FOR ZETA FOR LAYER     1 ZONE     2
 SOLVING FOR ZETA FOR LAYER     2 ZONE     2
 SOLVING FOR ZETA FOR LAYER     3 ZONE     2
 
 SOLVING FOR HEAD 

 NO OUTPUT CONTROL FOR STRESS PERIOD    1   TIME STEP  603
 SOLVING FOR ZETA FOR LAYER     1 ZONE     2
 SOLVING FOR ZETA FOR LAYER     2 ZONE     2
 SOLVING FOR ZETA FOR LAYER     3 ZONE     2
 
 SOLVING FOR HEAD 

 NO OUTPUT CONTROL FOR STRESS PERIOD    1   TIME STEP  604
 SOLVING FOR ZETA FOR LAYER     1 ZONE     2
 SOLVING FOR ZETA FOR LAYER     2 ZONE     2
 SOLVING FOR ZETA FOR LAYER     3 ZONE     2
 
 SOLVING FOR HEAD 

 NO OUTPUT CONTROL FOR STRESS PERIOD    1   TIME STEP  605
 SOLVING FOR ZETA FOR LAYER     1 ZONE     2
 SOLVING FOR ZETA FOR LAYER     2 ZONE     2
 SOLVING FOR ZETA FOR LAYER     3 ZONE     2
 
 SOLVING FOR HEAD 

 NO OUTPUT CONTROL FOR STRESS PERIOD    1   TIME STEP  606
 SOLVING FOR ZETA FOR LAYER     1 ZONE     2
 SOLVING FOR ZETA FOR LAYER     2 ZONE     2
 SOLVING FOR ZETA FOR LAYER     3 ZONE     2
 
 SOLVING FOR HEAD 

 NO OUTPUT CONTROL FOR STRESS PERIOD    1   TIME STEP  607
 SOLVING FOR ZETA FOR LAYER     1 ZONE     2
 SOLVING FOR ZETA FOR LAYER     2 ZONE     2
 SOLVING FOR ZETA FOR LAYER     3 ZONE     2
 
 SOLVING FOR HEAD 

 NO OUTPUT CONTROL FOR STRESS PERIOD    1   TIME STEP  608
 SOLVING FOR ZETA FOR LAYER     1 ZONE     2
 SOLVING FOR ZETA FOR LAYER     2 ZONE     2
 SOLVING FOR ZETA FOR LAYER     3 ZONE     2
 
 SOLVING FOR HEAD 

 NO OUTPUT CONTROL FOR STRESS PERIOD    1   TIME STEP  609
 SOLVING FOR ZETA FOR LAYER     1 ZONE     2
 SOLVING FOR ZETA FOR LAYER     2 ZONE     2
 SOLVING FOR ZETA FOR LAYER     3 ZONE     2
 
 SOLVING FOR HEAD 

 NO OUTPUT CONTROL FOR STRESS PERIOD    1   TIME STEP  610
 SOLVING FOR ZETA FOR LAYER     1 ZONE     2
 SOLVING FOR ZETA FOR LAYER     2 ZONE     2
 SOLVING FOR ZETA FOR LAYER     3 ZONE     2
 
 SOLVING FOR HEAD 

 NO OUTPUT CONTROL FOR STRESS PERIOD    1   TIME STEP  611
 SOLVING FOR ZETA FOR LAYER     1 ZONE     2
 SOLVING FOR ZETA FOR LAYER     2 ZONE     2
 SOLVING FOR ZETA FOR LAYER     3 ZONE     2
 
 SOLVING FOR HEAD 

 NO OUTPUT CONTROL FOR STRESS PERIOD    1   TIME STEP  612
 SOLVING FOR ZETA FOR LAYER     1 ZONE     2
 SOLVING FOR ZETA FOR LAYER     2 ZONE     2
 SOLVING FOR ZETA FOR LAYER     3 ZONE     2
 
 SOLVING FOR HEAD 

 NO OUTPUT CONTROL FOR STRESS PERIOD    1   TIME STEP  613
 SOLVING FOR ZETA FOR LAYER     1 ZONE     2
 SOLVING FOR ZETA FOR LAYER     2 ZONE     2
 SOLVING FOR ZETA FOR LAYER     3 ZONE     2
 
 SOLVING FOR HEAD 

 NO OUTPUT CONTROL FOR STRESS PERIOD    1   TIME STEP  614
 SOLVING FOR ZETA FOR LAYER     1 ZONE     2
 SOLVING FOR ZETA FOR LAYER     2 ZONE     2
 SOLVING FOR ZETA FOR LAYER     3 ZONE     2
 
 SOLVING FOR HEAD 

 NO OUTPUT CONTROL FOR STRESS PERIOD    1   TIME STEP  615
 SOLVING FOR ZETA FOR LAYER     1 ZONE     2
 SOLVING FOR ZETA FOR LAYER     2 ZONE     2
 SOLVING FOR ZETA FOR LAYER     3 ZONE     2
 
 SOLVING FOR HEAD 

 NO OUTPUT CONTROL FOR STRESS PERIOD    1   TIME STEP  616
 SOLVING FOR ZETA FOR LAYER     1 ZONE     2
 SOLVING FOR ZETA FOR LAYER     2 ZONE     2
 SOLVING FOR ZETA FOR LAYER     3 ZONE     2
 
 SOLVING FOR HEAD 

 NO OUTPUT CONTROL FOR STRESS PERIOD    1   TIME STEP  617
 SOLVING FOR ZETA FOR LAYER     1 ZONE     2
 SOLVING FOR ZETA FOR LAYER     2 ZONE     2
 SOLVING FOR ZETA FOR LAYER     3 ZONE     2
 
 SOLVING FOR HEAD 

 NO OUTPUT CONTROL FOR STRESS PERIOD    1   TIME STEP  618
 SOLVING FOR ZETA FOR LAYER     1 ZONE     2
 SOLVING FOR ZETA FOR LAYER     2 ZONE     2
 SOLVING FOR ZETA FOR LAYER     3 ZONE     2
 
 SOLVING FOR HEAD 

 NO OUTPUT CONTROL FOR STRESS PERIOD    1   TIME STEP  619
 SOLVING FOR ZETA FOR LAYER     1 ZONE     2
 SOLVING FOR ZETA FOR LAYER     2 ZONE     2
 SOLVING FOR ZETA FOR LAYER     3 ZONE     2
 
 SOLVING FOR HEAD 

 NO OUTPUT CONTROL FOR STRESS PERIOD    1   TIME STEP  620
 SOLVING FOR ZETA FOR LAYER     1 ZONE     2
 SOLVING FOR ZETA FOR LAYER     2 ZONE     2
 SOLVING FOR ZETA FOR LAYER     3 ZONE     2
 
 SOLVING FOR HEAD 

 NO OUTPUT CONTROL FOR STRESS PERIOD    1   TIME STEP  621
 SOLVING FOR ZETA FOR LAYER     1 ZONE     2
 SOLVING FOR ZETA FOR LAYER     2 ZONE     2
 SOLVING FOR ZETA FOR LAYER     3 ZONE     2
 
 SOLVING FOR HEAD 

 NO OUTPUT CONTROL FOR STRESS PERIOD    1   TIME STEP  622
 SOLVING FOR ZETA FOR LAYER     1 ZONE     2
 SOLVING FOR ZETA FOR LAYER     2 ZONE     2
 SOLVING FOR ZETA FOR LAYER     3 ZONE     2
 
 SOLVING FOR HEAD 

 NO OUTPUT CONTROL FOR STRESS PERIOD    1   TIME STEP  623
 SOLVING FOR ZETA FOR LAYER     1 ZONE     2
 SOLVING FOR ZETA FOR LAYER     2 ZONE     2
 SOLVING FOR ZETA FOR LAYER     3 ZONE     2
 
 SOLVING FOR HEAD 

 NO OUTPUT CONTROL FOR STRESS PERIOD    1   TIME STEP  624
 SOLVING FOR ZETA FOR LAYER     1 ZONE     2
 SOLVING FOR ZETA FOR LAYER     2 ZONE     2
 SOLVING FOR ZETA FOR LAYER     3 ZONE     2
 
 SOLVING FOR HEAD 

 NO OUTPUT CONTROL FOR STRESS PERIOD    1   TIME STEP  625
 SOLVING FOR ZETA FOR LAYER     1 ZONE     2
 SOLVING FOR ZETA FOR LAYER     2 ZONE     2
 SOLVING FOR ZETA FOR LAYER     3 ZONE     2
 
 SOLVING FOR HEAD 

 NO OUTPUT CONTROL FOR STRESS PERIOD    1   TIME STEP  626
 SOLVING FOR ZETA FOR LAYER     1 ZONE     2
 SOLVING FOR ZETA FOR LAYER     2 ZONE     2
 SOLVING FOR ZETA FOR LAYER     3 ZONE     2
 
 SOLVING FOR HEAD 

 NO OUTPUT CONTROL FOR STRESS PERIOD    1   TIME STEP  627
 SOLVING FOR ZETA FOR LAYER     1 ZONE     2
 SOLVING FOR ZETA FOR LAYER     2 ZONE     2
 SOLVING FOR ZETA FOR LAYER     3 ZONE     2
 
 SOLVING FOR HEAD 

 NO OUTPUT CONTROL FOR STRESS PERIOD    1   TIME STEP  628
 SOLVING FOR ZETA FOR LAYER     1 ZONE     2
 SOLVING FOR ZETA FOR LAYER     2 ZONE     2
 SOLVING FOR ZETA FOR LAYER     3 ZONE     2
 
 SOLVING FOR HEAD 

 NO OUTPUT CONTROL FOR STRESS PERIOD    1   TIME STEP  629
 SOLVING FOR ZETA FOR LAYER     1 ZONE     2
 SOLVING FOR ZETA FOR LAYER     2 ZONE     2
 SOLVING FOR ZETA FOR LAYER     3 ZONE     2
 
 SOLVING FOR HEAD 

 NO OUTPUT CONTROL FOR STRESS PERIOD    1   TIME STEP  630
 SOLVING FOR ZETA FOR LAYER     1 ZONE     2
 SOLVING FOR ZETA FOR LAYER     2 ZONE     2
 SOLVING FOR ZETA FOR LAYER     3 ZONE     2
 
 SOLVING FOR HEAD 

 NO OUTPUT CONTROL FOR STRESS PERIOD    1   TIME STEP  631
 SOLVING FOR ZETA FOR LAYER     1 ZONE     2
 SOLVING FOR ZETA FOR LAYER     2 ZONE     2
 SOLVING FOR ZETA FOR LAYER     3 ZONE     2
 
 SOLVING FOR HEAD 

 NO OUTPUT CONTROL FOR STRESS PERIOD    1   TIME STEP  632
 SOLVING FOR ZETA FOR LAYER     1 ZONE     2
 SOLVING FOR ZETA FOR LAYER     2 ZONE     2
 SOLVING FOR ZETA FOR LAYER     3 ZONE     2
 
 SOLVING FOR HEAD 

 NO OUTPUT CONTROL FOR STRESS PERIOD    1   TIME STEP  633
 SOLVING FOR ZETA FOR LAYER     1 ZONE     2
 SOLVING FOR ZETA FOR LAYER     2 ZONE     2
 SOLVING FOR ZETA FOR LAYER     3 ZONE     2
 
 SOLVING FOR HEAD 

 NO OUTPUT CONTROL FOR STRESS PERIOD    1   TIME STEP  634
 SOLVING FOR ZETA FOR LAYER     1 ZONE     2
 SOLVING FOR ZETA FOR LAYER     2 ZONE     2
 SOLVING FOR ZETA FOR LAYER     3 ZONE     2
 
 SOLVING FOR HEAD 

 NO OUTPUT CONTROL FOR STRESS PERIOD    1   TIME STEP  635
 SOLVING FOR ZETA FOR LAYER     1 ZONE     2
 SOLVING FOR ZETA FOR LAYER     2 ZONE     2
 SOLVING FOR ZETA FOR LAYER     3 ZONE     2
 
 SOLVING FOR HEAD 

 NO OUTPUT CONTROL FOR STRESS PERIOD    1   TIME STEP  636
 SOLVING FOR ZETA FOR LAYER     1 ZONE     2
 SOLVING FOR ZETA FOR LAYER     2 ZONE     2
 SOLVING FOR ZETA FOR LAYER     3 ZONE     2
 
 SOLVING FOR HEAD 

 NO OUTPUT CONTROL FOR STRESS PERIOD    1   TIME STEP  637
 SOLVING FOR ZETA FOR LAYER     1 ZONE     2
 SOLVING FOR ZETA FOR LAYER     2 ZONE     2
 SOLVING FOR ZETA FOR LAYER     3 ZONE     2
 
 SOLVING FOR HEAD 

 NO OUTPUT CONTROL FOR STRESS PERIOD    1   TIME STEP  638
 SOLVING FOR ZETA FOR LAYER     1 ZONE     2
 SOLVING FOR ZETA FOR LAYER     2 ZONE     2
 SOLVING FOR ZETA FOR LAYER     3 ZONE     2
 
 SOLVING FOR HEAD 

 NO OUTPUT CONTROL FOR STRESS PERIOD    1   TIME STEP  639
 SOLVING FOR ZETA FOR LAYER     1 ZONE     2
 SOLVING FOR ZETA FOR LAYER     2 ZONE     2
 SOLVING FOR ZETA FOR LAYER     3 ZONE     2
 
 SOLVING FOR HEAD 

 NO OUTPUT CONTROL FOR STRESS PERIOD    1   TIME STEP  640
 SOLVING FOR ZETA FOR LAYER     1 ZONE     2
 SOLVING FOR ZETA FOR LAYER     2 ZONE     2
 SOLVING FOR ZETA FOR LAYER     3 ZONE     2
 
 SOLVING FOR HEAD 

 NO OUTPUT CONTROL FOR STRESS PERIOD    1   TIME STEP  641
 SOLVING FOR ZETA FOR LAYER     1 ZONE     2
 SOLVING FOR ZETA FOR LAYER     2 ZONE     2
 SOLVING FOR ZETA FOR LAYER     3 ZONE     2
 
 SOLVING FOR HEAD 

 NO OUTPUT CONTROL FOR STRESS PERIOD    1   TIME STEP  642
 SOLVING FOR ZETA FOR LAYER     1 ZONE     2
 SOLVING FOR ZETA FOR LAYER     2 ZONE     2
 SOLVING FOR ZETA FOR LAYER     3 ZONE     2
 
 SOLVING FOR HEAD 

 NO OUTPUT CONTROL FOR STRESS PERIOD    1   TIME STEP  643
 SOLVING FOR ZETA FOR LAYER     1 ZONE     2
 SOLVING FOR ZETA FOR LAYER     2 ZONE     2
 SOLVING FOR ZETA FOR LAYER     3 ZONE     2
 
 SOLVING FOR HEAD 

 NO OUTPUT CONTROL FOR STRESS PERIOD    1   TIME STEP  644
 SOLVING FOR ZETA FOR LAYER     1 ZONE     2
 SOLVING FOR ZETA FOR LAYER     2 ZONE     2
 SOLVING FOR ZETA FOR LAYER     3 ZONE     2
 
 SOLVING FOR HEAD 

 NO OUTPUT CONTROL FOR STRESS PERIOD    1   TIME STEP  645
 SOLVING FOR ZETA FOR LAYER     1 ZONE     2
 SOLVING FOR ZETA FOR LAYER     2 ZONE     2
 SOLVING FOR ZETA FOR LAYER     3 ZONE     2
 
 SOLVING FOR HEAD 

 NO OUTPUT CONTROL FOR STRESS PERIOD    1   TIME STEP  646
 SOLVING FOR ZETA FOR LAYER     1 ZONE     2
 SOLVING FOR ZETA FOR LAYER     2 ZONE     2
 SOLVING FOR ZETA FOR LAYER     3 ZONE     2
 
 SOLVING FOR HEAD 

 NO OUTPUT CONTROL FOR STRESS PERIOD    1   TIME STEP  647
 SOLVING FOR ZETA FOR LAYER     1 ZONE     2
 SOLVING FOR ZETA FOR LAYER     2 ZONE     2
 SOLVING FOR ZETA FOR LAYER     3 ZONE     2
 
 SOLVING FOR HEAD 

 NO OUTPUT CONTROL FOR STRESS PERIOD    1   TIME STEP  648
 SOLVING FOR ZETA FOR LAYER     1 ZONE     2
 SOLVING FOR ZETA FOR LAYER     2 ZONE     2
 SOLVING FOR ZETA FOR LAYER     3 ZONE     2
 
 SOLVING FOR HEAD 

 NO OUTPUT CONTROL FOR STRESS PERIOD    1   TIME STEP  649
 SOLVING FOR ZETA FOR LAYER     1 ZONE     2
 SOLVING FOR ZETA FOR LAYER     2 ZONE     2
 SOLVING FOR ZETA FOR LAYER     3 ZONE     2
 
 SOLVING FOR HEAD 

 NO OUTPUT CONTROL FOR STRESS PERIOD    1   TIME STEP  650
 SOLVING FOR ZETA FOR LAYER     1 ZONE     2
 SOLVING FOR ZETA FOR LAYER     2 ZONE     2
 SOLVING FOR ZETA FOR LAYER     3 ZONE     2
 
 SOLVING FOR HEAD 

 NO OUTPUT CONTROL FOR STRESS PERIOD    1   TIME STEP  651
 SOLVING FOR ZETA FOR LAYER     1 ZONE     2
 SOLVING FOR ZETA FOR LAYER     2 ZONE     2
 SOLVING FOR ZETA FOR LAYER     3 ZONE     2
 
 SOLVING FOR HEAD 

 NO OUTPUT CONTROL FOR STRESS PERIOD    1   TIME STEP  652
 SOLVING FOR ZETA FOR LAYER     1 ZONE     2
 SOLVING FOR ZETA FOR LAYER     2 ZONE     2
 SOLVING FOR ZETA FOR LAYER     3 ZONE     2
 
 SOLVING FOR HEAD 

 NO OUTPUT CONTROL FOR STRESS PERIOD    1   TIME STEP  653
 SOLVING FOR ZETA FOR LAYER     1 ZONE     2
 SOLVING FOR ZETA FOR LAYER     2 ZONE     2
 SOLVING FOR ZETA FOR LAYER     3 ZONE     2
 
 SOLVING FOR HEAD 

 NO OUTPUT CONTROL FOR STRESS PERIOD    1   TIME STEP  654
 SOLVING FOR ZETA FOR LAYER     1 ZONE     2
 SOLVING FOR ZETA FOR LAYER     2 ZONE     2
 SOLVING FOR ZETA FOR LAYER     3 ZONE     2
 
 SOLVING FOR HEAD 

 NO OUTPUT CONTROL FOR STRESS PERIOD    1   TIME STEP  655
 SOLVING FOR ZETA FOR LAYER     1 ZONE     2
 SOLVING FOR ZETA FOR LAYER     2 ZONE     2
 SOLVING FOR ZETA FOR LAYER     3 ZONE     2
 
 SOLVING FOR HEAD 

 NO OUTPUT CONTROL FOR STRESS PERIOD    1   TIME STEP  656
 SOLVING FOR ZETA FOR LAYER     1 ZONE     2
 SOLVING FOR ZETA FOR LAYER     2 ZONE     2
 SOLVING FOR ZETA FOR LAYER     3 ZONE     2
 
 SOLVING FOR HEAD 

 NO OUTPUT CONTROL FOR STRESS PERIOD    1   TIME STEP  657
 SOLVING FOR ZETA FOR LAYER     1 ZONE     2
 SOLVING FOR ZETA FOR LAYER     2 ZONE     2
 SOLVING FOR ZETA FOR LAYER     3 ZONE     2
 
 SOLVING FOR HEAD 

 NO OUTPUT CONTROL FOR STRESS PERIOD    1   TIME STEP  658
 SOLVING FOR ZETA FOR LAYER     1 ZONE     2
 SOLVING FOR ZETA FOR LAYER     2 ZONE     2
 SOLVING FOR ZETA FOR LAYER     3 ZONE     2
 
 SOLVING FOR HEAD 

 NO OUTPUT CONTROL FOR STRESS PERIOD    1   TIME STEP  659
 SOLVING FOR ZETA FOR LAYER     1 ZONE     2
 SOLVING FOR ZETA FOR LAYER     2 ZONE     2
 SOLVING FOR ZETA FOR LAYER     3 ZONE     2
 
 SOLVING FOR HEAD 

 NO OUTPUT CONTROL FOR STRESS PERIOD    1   TIME STEP  660
 SOLVING FOR ZETA FOR LAYER     1 ZONE     2
 SOLVING FOR ZETA FOR LAYER     2 ZONE     2
 SOLVING FOR ZETA FOR LAYER     3 ZONE     2
 
 SOLVING FOR HEAD 

 NO OUTPUT CONTROL FOR STRESS PERIOD    1   TIME STEP  661
 SOLVING FOR ZETA FOR LAYER     1 ZONE     2
 SOLVING FOR ZETA FOR LAYER     2 ZONE     2
 SOLVING FOR ZETA FOR LAYER     3 ZONE     2
 
 SOLVING FOR HEAD 

 NO OUTPUT CONTROL FOR STRESS PERIOD    1   TIME STEP  662
 SOLVING FOR ZETA FOR LAYER     1 ZONE     2
 SOLVING FOR ZETA FOR LAYER     2 ZONE     2
 SOLVING FOR ZETA FOR LAYER     3 ZONE     2
 
 SOLVING FOR HEAD 

 NO OUTPUT CONTROL FOR STRESS PERIOD    1   TIME STEP  663
 SOLVING FOR ZETA FOR LAYER     1 ZONE     2
 SOLVING FOR ZETA FOR LAYER     2 ZONE     2
 SOLVING FOR ZETA FOR LAYER     3 ZONE     2
 
 SOLVING FOR HEAD 

 NO OUTPUT CONTROL FOR STRESS PERIOD    1   TIME STEP  664
 SOLVING FOR ZETA FOR LAYER     1 ZONE     2
 SOLVING FOR ZETA FOR LAYER     2 ZONE     2
 SOLVING FOR ZETA FOR LAYER     3 ZONE     2
 
 SOLVING FOR HEAD 

 NO OUTPUT CONTROL FOR STRESS PERIOD    1   TIME STEP  665
 SOLVING FOR ZETA FOR LAYER     1 ZONE     2
 SOLVING FOR ZETA FOR LAYER     2 ZONE     2
 SOLVING FOR ZETA FOR LAYER     3 ZONE     2
 
 SOLVING FOR HEAD 

 NO OUTPUT CONTROL FOR STRESS PERIOD    1   TIME STEP  666
 SOLVING FOR ZETA FOR LAYER     1 ZONE     2
 SOLVING FOR ZETA FOR LAYER     2 ZONE     2
 SOLVING FOR ZETA FOR LAYER     3 ZONE     2
 
 SOLVING FOR HEAD 

 NO OUTPUT CONTROL FOR STRESS PERIOD    1   TIME STEP  667
 SOLVING FOR ZETA FOR LAYER     1 ZONE     2
 SOLVING FOR ZETA FOR LAYER     2 ZONE     2
 SOLVING FOR ZETA FOR LAYER     3 ZONE     2
 
 SOLVING FOR HEAD 

 NO OUTPUT CONTROL FOR STRESS PERIOD    1   TIME STEP  668
 SOLVING FOR ZETA FOR LAYER     1 ZONE     2
 SOLVING FOR ZETA FOR LAYER     2 ZONE     2
 SOLVING FOR ZETA FOR LAYER     3 ZONE     2
 
 SOLVING FOR HEAD 

 NO OUTPUT CONTROL FOR STRESS PERIOD    1   TIME STEP  669
 SOLVING FOR ZETA FOR LAYER     1 ZONE     2
 SOLVING FOR ZETA FOR LAYER     2 ZONE     2
 SOLVING FOR ZETA FOR LAYER     3 ZONE     2
 
 SOLVING FOR HEAD 

 NO OUTPUT CONTROL FOR STRESS PERIOD    1   TIME STEP  670
 SOLVING FOR ZETA FOR LAYER     1 ZONE     2
 SOLVING FOR ZETA FOR LAYER     2 ZONE     2
 SOLVING FOR ZETA FOR LAYER     3 ZONE     2
 
 SOLVING FOR HEAD 

 NO OUTPUT CONTROL FOR STRESS PERIOD    1   TIME STEP  671
 SOLVING FOR ZETA FOR LAYER     1 ZONE     2
 SOLVING FOR ZETA FOR LAYER     2 ZONE     2
 SOLVING FOR ZETA FOR LAYER     3 ZONE     2
 
 SOLVING FOR HEAD 

 NO OUTPUT CONTROL FOR STRESS PERIOD    1   TIME STEP  672
 SOLVING FOR ZETA FOR LAYER     1 ZONE     2
 SOLVING FOR ZETA FOR LAYER     2 ZONE     2
 SOLVING FOR ZETA FOR LAYER     3 ZONE     2
 
 SOLVING FOR HEAD 

 NO OUTPUT CONTROL FOR STRESS PERIOD    1   TIME STEP  673
 SOLVING FOR ZETA FOR LAYER     1 ZONE     2
 SOLVING FOR ZETA FOR LAYER     2 ZONE     2
 SOLVING FOR ZETA FOR LAYER     3 ZONE     2
 
 SOLVING FOR HEAD 

 NO OUTPUT CONTROL FOR STRESS PERIOD    1   TIME STEP  674
 SOLVING FOR ZETA FOR LAYER     1 ZONE     2
 SOLVING FOR ZETA FOR LAYER     2 ZONE     2
 SOLVING FOR ZETA FOR LAYER     3 ZONE     2
 
 SOLVING FOR HEAD 

 NO OUTPUT CONTROL FOR STRESS PERIOD    1   TIME STEP  675
 SOLVING FOR ZETA FOR LAYER     1 ZONE     2
 SOLVING FOR ZETA FOR LAYER     2 ZONE     2
 SOLVING FOR ZETA FOR LAYER     3 ZONE     2
 
 SOLVING FOR HEAD 

 NO OUTPUT CONTROL FOR STRESS PERIOD    1   TIME STEP  676
 SOLVING FOR ZETA FOR LAYER     1 ZONE     2
 SOLVING FOR ZETA FOR LAYER     2 ZONE     2
 SOLVING FOR ZETA FOR LAYER     3 ZONE     2
 
 SOLVING FOR HEAD 

 NO OUTPUT CONTROL FOR STRESS PERIOD    1   TIME STEP  677
 SOLVING FOR ZETA FOR LAYER     1 ZONE     2
 SOLVING FOR ZETA FOR LAYER     2 ZONE     2
 SOLVING FOR ZETA FOR LAYER     3 ZONE     2
 
 SOLVING FOR HEAD 

 NO OUTPUT CONTROL FOR STRESS PERIOD    1   TIME STEP  678
 SOLVING FOR ZETA FOR LAYER     1 ZONE     2
 SOLVING FOR ZETA FOR LAYER     2 ZONE     2
 SOLVING FOR ZETA FOR LAYER     3 ZONE     2
 
 SOLVING FOR HEAD 

 NO OUTPUT CONTROL FOR STRESS PERIOD    1   TIME STEP  679
 SOLVING FOR ZETA FOR LAYER     1 ZONE     2
 SOLVING FOR ZETA FOR LAYER     2 ZONE     2
 SOLVING FOR ZETA FOR LAYER     3 ZONE     2
 
 SOLVING FOR HEAD 

 NO OUTPUT CONTROL FOR STRESS PERIOD    1   TIME STEP  680
 SOLVING FOR ZETA FOR LAYER     1 ZONE     2
 SOLVING FOR ZETA FOR LAYER     2 ZONE     2
 SOLVING FOR ZETA FOR LAYER     3 ZONE     2
 
 SOLVING FOR HEAD 

 NO OUTPUT CONTROL FOR STRESS PERIOD    1   TIME STEP  681
 SOLVING FOR ZETA FOR LAYER     1 ZONE     2
 SOLVING FOR ZETA FOR LAYER     2 ZONE     2
 SOLVING FOR ZETA FOR LAYER     3 ZONE     2
 
 SOLVING FOR HEAD 

 NO OUTPUT CONTROL FOR STRESS PERIOD    1   TIME STEP  682
 SOLVING FOR ZETA FOR LAYER     1 ZONE     2
 SOLVING FOR ZETA FOR LAYER     2 ZONE     2
 SOLVING FOR ZETA FOR LAYER     3 ZONE     2
 
 SOLVING FOR HEAD 

 NO OUTPUT CONTROL FOR STRESS PERIOD    1   TIME STEP  683
 SOLVING FOR ZETA FOR LAYER     1 ZONE     2
 SOLVING FOR ZETA FOR LAYER     2 ZONE     2
 SOLVING FOR ZETA FOR LAYER     3 ZONE     2
 
 SOLVING FOR HEAD 

 NO OUTPUT CONTROL FOR STRESS PERIOD    1   TIME STEP  684
 SOLVING FOR ZETA FOR LAYER     1 ZONE     2
 SOLVING FOR ZETA FOR LAYER     2 ZONE     2
 SOLVING FOR ZETA FOR LAYER     3 ZONE     2
 
 SOLVING FOR HEAD 

 NO OUTPUT CONTROL FOR STRESS PERIOD    1   TIME STEP  685
 SOLVING FOR ZETA FOR LAYER     1 ZONE     2
 SOLVING FOR ZETA FOR LAYER     2 ZONE     2
 SOLVING FOR ZETA FOR LAYER     3 ZONE     2
 
 SOLVING FOR HEAD 

 NO OUTPUT CONTROL FOR STRESS PERIOD    1   TIME STEP  686
 SOLVING FOR ZETA FOR LAYER     1 ZONE     2
 SOLVING FOR ZETA FOR LAYER     2 ZONE     2
 SOLVING FOR ZETA FOR LAYER     3 ZONE     2
 
 SOLVING FOR HEAD 

 NO OUTPUT CONTROL FOR STRESS PERIOD    1   TIME STEP  687
 SOLVING FOR ZETA FOR LAYER     1 ZONE     2
 SOLVING FOR ZETA FOR LAYER     2 ZONE     2
 SOLVING FOR ZETA FOR LAYER     3 ZONE     2
 
 SOLVING FOR HEAD 

 NO OUTPUT CONTROL FOR STRESS PERIOD    1   TIME STEP  688
 SOLVING FOR ZETA FOR LAYER     1 ZONE     2
 SOLVING FOR ZETA FOR LAYER     2 ZONE     2
 SOLVING FOR ZETA FOR LAYER     3 ZONE     2
 
 SOLVING FOR HEAD 

 NO OUTPUT CONTROL FOR STRESS PERIOD    1   TIME STEP  689
 SOLVING FOR ZETA FOR LAYER     1 ZONE     2
 SOLVING FOR ZETA FOR LAYER     2 ZONE     2
 SOLVING FOR ZETA FOR LAYER     3 ZONE     2
 
 SOLVING FOR HEAD 

 NO OUTPUT CONTROL FOR STRESS PERIOD    1   TIME STEP  690
 SOLVING FOR ZETA FOR LAYER     1 ZONE     2
 SOLVING FOR ZETA FOR LAYER     2 ZONE     2
 SOLVING FOR ZETA FOR LAYER     3 ZONE     2
 
 SOLVING FOR HEAD 

 NO OUTPUT CONTROL FOR STRESS PERIOD    1   TIME STEP  691
 SOLVING FOR ZETA FOR LAYER     1 ZONE     2
 SOLVING FOR ZETA FOR LAYER     2 ZONE     2
 SOLVING FOR ZETA FOR LAYER     3 ZONE     2
 
 SOLVING FOR HEAD 

 NO OUTPUT CONTROL FOR STRESS PERIOD    1   TIME STEP  692
 SOLVING FOR ZETA FOR LAYER     1 ZONE     2
 SOLVING FOR ZETA FOR LAYER     2 ZONE     2
 SOLVING FOR ZETA FOR LAYER     3 ZONE     2
 
 SOLVING FOR HEAD 

 NO OUTPUT CONTROL FOR STRESS PERIOD    1   TIME STEP  693
 SOLVING FOR ZETA FOR LAYER     1 ZONE     2
 SOLVING FOR ZETA FOR LAYER     2 ZONE     2
 SOLVING FOR ZETA FOR LAYER     3 ZONE     2
 
 SOLVING FOR HEAD 

 NO OUTPUT CONTROL FOR STRESS PERIOD    1   TIME STEP  694
 SOLVING FOR ZETA FOR LAYER     1 ZONE     2
 SOLVING FOR ZETA FOR LAYER     2 ZONE     2
 SOLVING FOR ZETA FOR LAYER     3 ZONE     2
 
 SOLVING FOR HEAD 

 NO OUTPUT CONTROL FOR STRESS PERIOD    1   TIME STEP  695
 SOLVING FOR ZETA FOR LAYER     1 ZONE     2
 SOLVING FOR ZETA FOR LAYER     2 ZONE     2
 SOLVING FOR ZETA FOR LAYER     3 ZONE     2
 
 SOLVING FOR HEAD 

 NO OUTPUT CONTROL FOR STRESS PERIOD    1   TIME STEP  696
 SOLVING FOR ZETA FOR LAYER     1 ZONE     2
 SOLVING FOR ZETA FOR LAYER     2 ZONE     2
 SOLVING FOR ZETA FOR LAYER     3 ZONE     2
 
 SOLVING FOR HEAD 

 NO OUTPUT CONTROL FOR STRESS PERIOD    1   TIME STEP  697
 SOLVING FOR ZETA FOR LAYER     1 ZONE     2
 SOLVING FOR ZETA FOR LAYER     2 ZONE     2
 SOLVING FOR ZETA FOR LAYER     3 ZONE     2
 
 SOLVING FOR HEAD 

 NO OUTPUT CONTROL FOR STRESS PERIOD    1   TIME STEP  698
 SOLVING FOR ZETA FOR LAYER     1 ZONE     2
 SOLVING FOR ZETA FOR LAYER     2 ZONE     2
 SOLVING FOR ZETA FOR LAYER     3 ZONE     2
 
 SOLVING FOR HEAD 

 NO OUTPUT CONTROL FOR STRESS PERIOD    1   TIME STEP  699
 SOLVING FOR ZETA FOR LAYER     1 ZONE     2
 SOLVING FOR ZETA FOR LAYER     2 ZONE     2
 SOLVING FOR ZETA FOR LAYER     3 ZONE     2
 
 SOLVING FOR HEAD 

 OUTPUT CONTROL FOR STRESS PERIOD    1   TIME STEP  700
    PRINT BUDGET
    SAVE HEAD FOR ALL LAYERS
 SOLVING FOR ZETA FOR LAYER     1 ZONE     2
 SOLVING FOR ZETA FOR LAYER     2 ZONE     2
 SOLVING FOR ZETA FOR LAYER     3 ZONE     2
 UBUDSV SAVING "      ZETASRF  1" ON UNIT 55 AT TIME STEP700, STRESS PERIOD    1


                      VOLUMETRIC SWI ZONE BUDGET FOR ENTIRE MODEL
                     AT END OF TIME STEP  700 IN STRESS PERIOD   1
                                      ZONE     1
  -----------------------------------------------------------------------------------

        CUMULATIVE VOLUMES      L**3       RATES FOR THIS TIME STEP      L**3/T
        ------------------                 ------------------------

              IN:                                      IN:
              ---                                      ---
             BOUNDARIES =   292981024.0000            BOUNDARIES =        5706.0879
          CONSTANT HEAD =           0.0000         CONSTANT HEAD =           0.0000
            ZONE CHANGE =     9852311.0000           ZONE CHANGE =         142.1114
       ZONE CHG TIP/TOE =   161765856.0000      ZONE CHG TIP/TOE =        1487.2661
            ZONE MIXING =      937743.8750           ZONE MIXING =           2.8828

               TOTAL IN =   465536928.0000              TOTAL IN =        7338.3481

             OUT:                                     OUT:
             ----                                     ----
             BOUNDARIES =   188688192.0000            BOUNDARIES =        4621.9736
          CONSTANT HEAD =           0.0000         CONSTANT HEAD =           0.0000
            ZONE CHANGE =   171707152.0000           ZONE CHANGE =        1618.7811
       ZONE CHG TIP/TOE =      275591.8750      ZONE CHG TIP/TOE =           1.6425
            ZONE MIXING =    43260856.0000           ZONE MIXING =         653.7078

              TOTAL OUT =   403931776.0000             TOTAL OUT =        6896.1055

               IN - OUT =    61605152.0000              IN - OUT =         442.2427

    PERCENT DISCREPANCY =          14.17     PERCENT DISCREPANCY =           6.21



                      VOLUMETRIC SWI ZONE BUDGET FOR ENTIRE MODEL
                     AT END OF TIME STEP  700 IN STRESS PERIOD   1
                                      ZONE     2
  -----------------------------------------------------------------------------------

        CUMULATIVE VOLUMES      L**3       RATES FOR THIS TIME STEP      L**3/T
        ------------------                 ------------------------

              IN:                                      IN:
              ---                                      ---
             BOUNDARIES =    58123772.0000            BOUNDARIES =         970.9464
          CONSTANT HEAD =           0.0000         CONSTANT HEAD =           0.0000
            ZONE CHANGE =     9899422.0000           ZONE CHANGE =         131.6723
       ZONE CHG TIP/TOE =   107126000.0000      ZONE CHG TIP/TOE =        1228.7418
            ZONE MIXING =    43260856.0000           ZONE MIXING =         653.7078

               TOTAL IN =   218410048.0000              TOTAL IN =        2985.0681

             OUT:                                     OUT:
             ----                                     ----
             BOUNDARIES =   162594496.0000            BOUNDARIES =        2058.5093
          CONSTANT HEAD =           0.0000         CONSTANT HEAD =           0.0000
            ZONE CHANGE =   116623184.0000           ZONE CHANGE =        1364.6887
       ZONE CHG TIP/TOE =       92417.1562      ZONE CHG TIP/TOE =           0.7885
            ZONE MIXING =      937743.8750           ZONE MIXING =           2.8828

              TOTAL OUT =   280247808.0000             TOTAL OUT =        3426.8694

               IN - OUT =   -61837760.0000              IN - OUT =        -441.8013

    PERCENT DISCREPANCY =         -24.80     PERCENT DISCREPANCY =         -13.78


 HEAD WILL BE SAVED ON UNIT   51 AT END OF TIME STEP  700, STRESS PERIOD    1
1
  VOLUMETRIC BUDGET FOR ENTIRE MODEL AT END OF TIME STEP  700, STRESS PERIOD   1
  ------------------------------------------------------------------------------

     CUMULATIVE VOLUMES      L**3       RATES FOR THIS TIME STEP      L**3/T
     ------------------                 ------------------------

           IN:                                      IN:
           ---                                      ---
             STORAGE =           0.0000               STORAGE =           0.0000
       CONSTANT HEAD =           0.0000         CONSTANT HEAD =           0.0000
          SWIADDTOCH =           0.0000            SWIADDTOCH =           0.0000
               WELLS =           0.0000                 WELLS =           0.0000
     HEAD DEP BOUNDS =    51363104.0000       HEAD DEP BOUNDS =         815.2714
            RECHARGE =   299742080.0000              RECHARGE =        5861.7627

            TOTAL IN =   351105184.0000              TOTAL IN =        6677.0342

          OUT:                                     OUT:
          ----                                     ----
             STORAGE =           0.0000               STORAGE =           0.0000
       CONSTANT HEAD =           0.0000         CONSTANT HEAD =           0.0000
          SWIADDTOCH =           0.0000            SWIADDTOCH =           0.0000
               WELLS =           0.0000                 WELLS =           0.0000
     HEAD DEP BOUNDS =   351282624.0000       HEAD DEP BOUNDS =        6680.4829
            RECHARGE =           0.0000              RECHARGE =           0.0000

           TOTAL OUT =   351282624.0000             TOTAL OUT =        6680.4829

            IN - OUT =     -177440.0000              IN - OUT =          -3.4487

 PERCENT DISCREPANCY =          -0.05     PERCENT DISCREPANCY =          -0.05






         TIME SUMMARY AT END OF TIME STEP  700 IN STRESS PERIOD    1
                    SECONDS     MINUTES      HOURS       DAYS        YEARS
                    -----------------------------------------------------------
   TIME STEP LENGTH 6.31152E+06 1.05192E+05  1753.2      73.050     0.20000    
 STRESS PERIOD TIME 4.41809E+09 7.36349E+07 1.22725E+06  51135.      140.00    
         TOTAL TIME 4.41809E+09 7.36349E+07 1.22725E+06  51135.      140.00    
1
 
 SOLVING FOR HEAD 

 NO OUTPUT CONTROL FOR STRESS PERIOD    1   TIME STEP  701
 SOLVING FOR ZETA FOR LAYER     1 ZONE     2
 SOLVING FOR ZETA FOR LAYER     2 ZONE     2
 SOLVING FOR ZETA FOR LAYER     3 ZONE     2
 
 SOLVING FOR HEAD 

 NO OUTPUT CONTROL FOR STRESS PERIOD    1   TIME STEP  702
 SOLVING FOR ZETA FOR LAYER     1 ZONE     2
 SOLVING FOR ZETA FOR LAYER     2 ZONE     2
 SOLVING FOR ZETA FOR LAYER     3 ZONE     2
 
 SOLVING FOR HEAD 

 NO OUTPUT CONTROL FOR STRESS PERIOD    1   TIME STEP  703
 SOLVING FOR ZETA FOR LAYER     1 ZONE     2
 SOLVING FOR ZETA FOR LAYER     2 ZONE     2
 SOLVING FOR ZETA FOR LAYER     3 ZONE     2
 
 SOLVING FOR HEAD 

 NO OUTPUT CONTROL FOR STRESS PERIOD    1   TIME STEP  704
 SOLVING FOR ZETA FOR LAYER     1 ZONE     2
 SOLVING FOR ZETA FOR LAYER     2 ZONE     2
 SOLVING FOR ZETA FOR LAYER     3 ZONE     2
 
 SOLVING FOR HEAD 

 NO OUTPUT CONTROL FOR STRESS PERIOD    1   TIME STEP  705
 SOLVING FOR ZETA FOR LAYER     1 ZONE     2
 SOLVING FOR ZETA FOR LAYER     2 ZONE     2
 SOLVING FOR ZETA FOR LAYER     3 ZONE     2
 
 SOLVING FOR HEAD 

 NO OUTPUT CONTROL FOR STRESS PERIOD    1   TIME STEP  706
 SOLVING FOR ZETA FOR LAYER     1 ZONE     2
 SOLVING FOR ZETA FOR LAYER     2 ZONE     2
 SOLVING FOR ZETA FOR LAYER     3 ZONE     2
 
 SOLVING FOR HEAD 

 NO OUTPUT CONTROL FOR STRESS PERIOD    1   TIME STEP  707
 SOLVING FOR ZETA FOR LAYER     1 ZONE     2
 SOLVING FOR ZETA FOR LAYER     2 ZONE     2
 SOLVING FOR ZETA FOR LAYER     3 ZONE     2
 
 SOLVING FOR HEAD 

 NO OUTPUT CONTROL FOR STRESS PERIOD    1   TIME STEP  708
 SOLVING FOR ZETA FOR LAYER     1 ZONE     2
 SOLVING FOR ZETA FOR LAYER     2 ZONE     2
 SOLVING FOR ZETA FOR LAYER     3 ZONE     2
 
 SOLVING FOR HEAD 

 NO OUTPUT CONTROL FOR STRESS PERIOD    1   TIME STEP  709
 SOLVING FOR ZETA FOR LAYER     1 ZONE     2
 SOLVING FOR ZETA FOR LAYER     2 ZONE     2
 SOLVING FOR ZETA FOR LAYER     3 ZONE     2
 
 SOLVING FOR HEAD 

 NO OUTPUT CONTROL FOR STRESS PERIOD    1   TIME STEP  710
 SOLVING FOR ZETA FOR LAYER     1 ZONE     2
 SOLVING FOR ZETA FOR LAYER     2 ZONE     2
 SOLVING FOR ZETA FOR LAYER     3 ZONE     2
 
 SOLVING FOR HEAD 

 NO OUTPUT CONTROL FOR STRESS PERIOD    1   TIME STEP  711
 SOLVING FOR ZETA FOR LAYER     1 ZONE     2
 SOLVING FOR ZETA FOR LAYER     2 ZONE     2
 SOLVING FOR ZETA FOR LAYER     3 ZONE     2
 
 SOLVING FOR HEAD 

 NO OUTPUT CONTROL FOR STRESS PERIOD    1   TIME STEP  712
 SOLVING FOR ZETA FOR LAYER     1 ZONE     2
 SOLVING FOR ZETA FOR LAYER     2 ZONE     2
 SOLVING FOR ZETA FOR LAYER     3 ZONE     2
 
 SOLVING FOR HEAD 

 NO OUTPUT CONTROL FOR STRESS PERIOD    1   TIME STEP  713
 SOLVING FOR ZETA FOR LAYER     1 ZONE     2
 SOLVING FOR ZETA FOR LAYER     2 ZONE     2
 SOLVING FOR ZETA FOR LAYER     3 ZONE     2
 
 SOLVING FOR HEAD 

 NO OUTPUT CONTROL FOR STRESS PERIOD    1   TIME STEP  714
 SOLVING FOR ZETA FOR LAYER     1 ZONE     2
 SOLVING FOR ZETA FOR LAYER     2 ZONE     2
 SOLVING FOR ZETA FOR LAYER     3 ZONE     2
 
 SOLVING FOR HEAD 

 NO OUTPUT CONTROL FOR STRESS PERIOD    1   TIME STEP  715
 SOLVING FOR ZETA FOR LAYER     1 ZONE     2
 SOLVING FOR ZETA FOR LAYER     2 ZONE     2
 SOLVING FOR ZETA FOR LAYER     3 ZONE     2
 
 SOLVING FOR HEAD 

 NO OUTPUT CONTROL FOR STRESS PERIOD    1   TIME STEP  716
 SOLVING FOR ZETA FOR LAYER     1 ZONE     2
 SOLVING FOR ZETA FOR LAYER     2 ZONE     2
 SOLVING FOR ZETA FOR LAYER     3 ZONE     2
 
 SOLVING FOR HEAD 

 NO OUTPUT CONTROL FOR STRESS PERIOD    1   TIME STEP  717
 SOLVING FOR ZETA FOR LAYER     1 ZONE     2
 SOLVING FOR ZETA FOR LAYER     2 ZONE     2
 SOLVING FOR ZETA FOR LAYER     3 ZONE     2
 
 SOLVING FOR HEAD 

 NO OUTPUT CONTROL FOR STRESS PERIOD    1   TIME STEP  718
 SOLVING FOR ZETA FOR LAYER     1 ZONE     2
 SOLVING FOR ZETA FOR LAYER     2 ZONE     2
 SOLVING FOR ZETA FOR LAYER     3 ZONE     2
 
 SOLVING FOR HEAD 

 NO OUTPUT CONTROL FOR STRESS PERIOD    1   TIME STEP  719
 SOLVING FOR ZETA FOR LAYER     1 ZONE     2
 SOLVING FOR ZETA FOR LAYER     2 ZONE     2
 SOLVING FOR ZETA FOR LAYER     3 ZONE     2
 
 SOLVING FOR HEAD 

 NO OUTPUT CONTROL FOR STRESS PERIOD    1   TIME STEP  720
 SOLVING FOR ZETA FOR LAYER     1 ZONE     2
 SOLVING FOR ZETA FOR LAYER     2 ZONE     2
 SOLVING FOR ZETA FOR LAYER     3 ZONE     2
 
 SOLVING FOR HEAD 

 NO OUTPUT CONTROL FOR STRESS PERIOD    1   TIME STEP  721
 SOLVING FOR ZETA FOR LAYER     1 ZONE     2
 SOLVING FOR ZETA FOR LAYER     2 ZONE     2
 SOLVING FOR ZETA FOR LAYER     3 ZONE     2
 
 SOLVING FOR HEAD 

 NO OUTPUT CONTROL FOR STRESS PERIOD    1   TIME STEP  722
 SOLVING FOR ZETA FOR LAYER     1 ZONE     2
 SOLVING FOR ZETA FOR LAYER     2 ZONE     2
 SOLVING FOR ZETA FOR LAYER     3 ZONE     2
 
 SOLVING FOR HEAD 

 NO OUTPUT CONTROL FOR STRESS PERIOD    1   TIME STEP  723
 SOLVING FOR ZETA FOR LAYER     1 ZONE     2
 SOLVING FOR ZETA FOR LAYER     2 ZONE     2
 SOLVING FOR ZETA FOR LAYER     3 ZONE     2
 
 SOLVING FOR HEAD 

 NO OUTPUT CONTROL FOR STRESS PERIOD    1   TIME STEP  724
 SOLVING FOR ZETA FOR LAYER     1 ZONE     2
 SOLVING FOR ZETA FOR LAYER     2 ZONE     2
 SOLVING FOR ZETA FOR LAYER     3 ZONE     2
 
 SOLVING FOR HEAD 

 NO OUTPUT CONTROL FOR STRESS PERIOD    1   TIME STEP  725
 SOLVING FOR ZETA FOR LAYER     1 ZONE     2
 SOLVING FOR ZETA FOR LAYER     2 ZONE     2
 SOLVING FOR ZETA FOR LAYER     3 ZONE     2
 
 SOLVING FOR HEAD 

 NO OUTPUT CONTROL FOR STRESS PERIOD    1   TIME STEP  726
 SOLVING FOR ZETA FOR LAYER     1 ZONE     2
 SOLVING FOR ZETA FOR LAYER     2 ZONE     2
 SOLVING FOR ZETA FOR LAYER     3 ZONE     2
 
 SOLVING FOR HEAD 

 NO OUTPUT CONTROL FOR STRESS PERIOD    1   TIME STEP  727
 SOLVING FOR ZETA FOR LAYER     1 ZONE     2
 SOLVING FOR ZETA FOR LAYER     2 ZONE     2
 SOLVING FOR ZETA FOR LAYER     3 ZONE     2
 
 SOLVING FOR HEAD 

 NO OUTPUT CONTROL FOR STRESS PERIOD    1   TIME STEP  728
 SOLVING FOR ZETA FOR LAYER     1 ZONE     2
 SOLVING FOR ZETA FOR LAYER     2 ZONE     2
 SOLVING FOR ZETA FOR LAYER     3 ZONE     2
 
 SOLVING FOR HEAD 

 NO OUTPUT CONTROL FOR STRESS PERIOD    1   TIME STEP  729
 SOLVING FOR ZETA FOR LAYER     1 ZONE     2
 SOLVING FOR ZETA FOR LAYER     2 ZONE     2
 SOLVING FOR ZETA FOR LAYER     3 ZONE     2
 
 SOLVING FOR HEAD 

 NO OUTPUT CONTROL FOR STRESS PERIOD    1   TIME STEP  730
 SOLVING FOR ZETA FOR LAYER     1 ZONE     2
 SOLVING FOR ZETA FOR LAYER     2 ZONE     2
 SOLVING FOR ZETA FOR LAYER     3 ZONE     2
 
 SOLVING FOR HEAD 

 NO OUTPUT CONTROL FOR STRESS PERIOD    1   TIME STEP  731
 SOLVING FOR ZETA FOR LAYER     1 ZONE     2
 SOLVING FOR ZETA FOR LAYER     2 ZONE     2
 SOLVING FOR ZETA FOR LAYER     3 ZONE     2
 
 SOLVING FOR HEAD 

 NO OUTPUT CONTROL FOR STRESS PERIOD    1   TIME STEP  732
 SOLVING FOR ZETA FOR LAYER     1 ZONE     2
 SOLVING FOR ZETA FOR LAYER     2 ZONE     2
 SOLVING FOR ZETA FOR LAYER     3 ZONE     2
 
 SOLVING FOR HEAD 

 NO OUTPUT CONTROL FOR STRESS PERIOD    1   TIME STEP  733
 SOLVING FOR ZETA FOR LAYER     1 ZONE     2
 SOLVING FOR ZETA FOR LAYER     2 ZONE     2
 SOLVING FOR ZETA FOR LAYER     3 ZONE     2
 
 SOLVING FOR HEAD 

 NO OUTPUT CONTROL FOR STRESS PERIOD    1   TIME STEP  734
 SOLVING FOR ZETA FOR LAYER     1 ZONE     2
 SOLVING FOR ZETA FOR LAYER     2 ZONE     2
 SOLVING FOR ZETA FOR LAYER     3 ZONE     2
 
 SOLVING FOR HEAD 

 NO OUTPUT CONTROL FOR STRESS PERIOD    1   TIME STEP  735
 SOLVING FOR ZETA FOR LAYER     1 ZONE     2
 SOLVING FOR ZETA FOR LAYER     2 ZONE     2
 SOLVING FOR ZETA FOR LAYER     3 ZONE     2
 
 SOLVING FOR HEAD 

 NO OUTPUT CONTROL FOR STRESS PERIOD    1   TIME STEP  736
 SOLVING FOR ZETA FOR LAYER     1 ZONE     2
 SOLVING FOR ZETA FOR LAYER     2 ZONE     2
 SOLVING FOR ZETA FOR LAYER     3 ZONE     2
 
 SOLVING FOR HEAD 

 NO OUTPUT CONTROL FOR STRESS PERIOD    1   TIME STEP  737
 SOLVING FOR ZETA FOR LAYER     1 ZONE     2
 SOLVING FOR ZETA FOR LAYER     2 ZONE     2
 SOLVING FOR ZETA FOR LAYER     3 ZONE     2
 
 SOLVING FOR HEAD 

 NO OUTPUT CONTROL FOR STRESS PERIOD    1   TIME STEP  738
 SOLVING FOR ZETA FOR LAYER     1 ZONE     2
 SOLVING FOR ZETA FOR LAYER     2 ZONE     2
 SOLVING FOR ZETA FOR LAYER     3 ZONE     2
 
 SOLVING FOR HEAD 

 NO OUTPUT CONTROL FOR STRESS PERIOD    1   TIME STEP  739
 SOLVING FOR ZETA FOR LAYER     1 ZONE     2
 SOLVING FOR ZETA FOR LAYER     2 ZONE     2
 SOLVING FOR ZETA FOR LAYER     3 ZONE     2
 
 SOLVING FOR HEAD 

 NO OUTPUT CONTROL FOR STRESS PERIOD    1   TIME STEP  740
 SOLVING FOR ZETA FOR LAYER     1 ZONE     2
 SOLVING FOR ZETA FOR LAYER     2 ZONE     2
 SOLVING FOR ZETA FOR LAYER     3 ZONE     2
 
 SOLVING FOR HEAD 

 NO OUTPUT CONTROL FOR STRESS PERIOD    1   TIME STEP  741
 SOLVING FOR ZETA FOR LAYER     1 ZONE     2
 SOLVING FOR ZETA FOR LAYER     2 ZONE     2
 SOLVING FOR ZETA FOR LAYER     3 ZONE     2
 
 SOLVING FOR HEAD 

 NO OUTPUT CONTROL FOR STRESS PERIOD    1   TIME STEP  742
 SOLVING FOR ZETA FOR LAYER     1 ZONE     2
 SOLVING FOR ZETA FOR LAYER     2 ZONE     2
 SOLVING FOR ZETA FOR LAYER     3 ZONE     2
 
 SOLVING FOR HEAD 

 NO OUTPUT CONTROL FOR STRESS PERIOD    1   TIME STEP  743
 SOLVING FOR ZETA FOR LAYER     1 ZONE     2
 SOLVING FOR ZETA FOR LAYER     2 ZONE     2
 SOLVING FOR ZETA FOR LAYER     3 ZONE     2
 
 SOLVING FOR HEAD 

 NO OUTPUT CONTROL FOR STRESS PERIOD    1   TIME STEP  744
 SOLVING FOR ZETA FOR LAYER     1 ZONE     2
 SOLVING FOR ZETA FOR LAYER     2 ZONE     2
 SOLVING FOR ZETA FOR LAYER     3 ZONE     2
 
 SOLVING FOR HEAD 

 NO OUTPUT CONTROL FOR STRESS PERIOD    1   TIME STEP  745
 SOLVING FOR ZETA FOR LAYER     1 ZONE     2
 SOLVING FOR ZETA FOR LAYER     2 ZONE     2
 SOLVING FOR ZETA FOR LAYER     3 ZONE     2
 
 SOLVING FOR HEAD 

 NO OUTPUT CONTROL FOR STRESS PERIOD    1   TIME STEP  746
 SOLVING FOR ZETA FOR LAYER     1 ZONE     2
 SOLVING FOR ZETA FOR LAYER     2 ZONE     2
 SOLVING FOR ZETA FOR LAYER     3 ZONE     2
 
 SOLVING FOR HEAD 

 NO OUTPUT CONTROL FOR STRESS PERIOD    1   TIME STEP  747
 SOLVING FOR ZETA FOR LAYER     1 ZONE     2
 SOLVING FOR ZETA FOR LAYER     2 ZONE     2
 SOLVING FOR ZETA FOR LAYER     3 ZONE     2
 
 SOLVING FOR HEAD 

 NO OUTPUT CONTROL FOR STRESS PERIOD    1   TIME STEP  748
 SOLVING FOR ZETA FOR LAYER     1 ZONE     2
 SOLVING FOR ZETA FOR LAYER     2 ZONE     2
 SOLVING FOR ZETA FOR LAYER     3 ZONE     2
 
 SOLVING FOR HEAD 

 NO OUTPUT CONTROL FOR STRESS PERIOD    1   TIME STEP  749
 SOLVING FOR ZETA FOR LAYER     1 ZONE     2
 SOLVING FOR ZETA FOR LAYER     2 ZONE     2
 SOLVING FOR ZETA FOR LAYER     3 ZONE     2
 
 SOLVING FOR HEAD 

 NO OUTPUT CONTROL FOR STRESS PERIOD    1   TIME STEP  750
 SOLVING FOR ZETA FOR LAYER     1 ZONE     2
 SOLVING FOR ZETA FOR LAYER     2 ZONE     2
 SOLVING FOR ZETA FOR LAYER     3 ZONE     2
 
 SOLVING FOR HEAD 

 NO OUTPUT CONTROL FOR STRESS PERIOD    1   TIME STEP  751
 SOLVING FOR ZETA FOR LAYER     1 ZONE     2
 SOLVING FOR ZETA FOR LAYER     2 ZONE     2
 SOLVING FOR ZETA FOR LAYER     3 ZONE     2
 
 SOLVING FOR HEAD 

 NO OUTPUT CONTROL FOR STRESS PERIOD    1   TIME STEP  752
 SOLVING FOR ZETA FOR LAYER     1 ZONE     2
 SOLVING FOR ZETA FOR LAYER     2 ZONE     2
 SOLVING FOR ZETA FOR LAYER     3 ZONE     2
 
 SOLVING FOR HEAD 

 NO OUTPUT CONTROL FOR STRESS PERIOD    1   TIME STEP  753
 SOLVING FOR ZETA FOR LAYER     1 ZONE     2
 SOLVING FOR ZETA FOR LAYER     2 ZONE     2
 SOLVING FOR ZETA FOR LAYER     3 ZONE     2
 
 SOLVING FOR HEAD 

 NO OUTPUT CONTROL FOR STRESS PERIOD    1   TIME STEP  754
 SOLVING FOR ZETA FOR LAYER     1 ZONE     2
 SOLVING FOR ZETA FOR LAYER     2 ZONE     2
 SOLVING FOR ZETA FOR LAYER     3 ZONE     2
 
 SOLVING FOR HEAD 

 NO OUTPUT CONTROL FOR STRESS PERIOD    1   TIME STEP  755
 SOLVING FOR ZETA FOR LAYER     1 ZONE     2
 SOLVING FOR ZETA FOR LAYER     2 ZONE     2
 SOLVING FOR ZETA FOR LAYER     3 ZONE     2
 
 SOLVING FOR HEAD 

 NO OUTPUT CONTROL FOR STRESS PERIOD    1   TIME STEP  756
 SOLVING FOR ZETA FOR LAYER     1 ZONE     2
 SOLVING FOR ZETA FOR LAYER     2 ZONE     2
 SOLVING FOR ZETA FOR LAYER     3 ZONE     2
 
 SOLVING FOR HEAD 

 NO OUTPUT CONTROL FOR STRESS PERIOD    1   TIME STEP  757
 SOLVING FOR ZETA FOR LAYER     1 ZONE     2
 SOLVING FOR ZETA FOR LAYER     2 ZONE     2
 SOLVING FOR ZETA FOR LAYER     3 ZONE     2
 
 SOLVING FOR HEAD 

 NO OUTPUT CONTROL FOR STRESS PERIOD    1   TIME STEP  758
 SOLVING FOR ZETA FOR LAYER     1 ZONE     2
 SOLVING FOR ZETA FOR LAYER     2 ZONE     2
 SOLVING FOR ZETA FOR LAYER     3 ZONE     2
 
 SOLVING FOR HEAD 

 NO OUTPUT CONTROL FOR STRESS PERIOD    1   TIME STEP  759
 SOLVING FOR ZETA FOR LAYER     1 ZONE     2
 SOLVING FOR ZETA FOR LAYER     2 ZONE     2
 SOLVING FOR ZETA FOR LAYER     3 ZONE     2
 
 SOLVING FOR HEAD 

 NO OUTPUT CONTROL FOR STRESS PERIOD    1   TIME STEP  760
 SOLVING FOR ZETA FOR LAYER     1 ZONE     2
 SOLVING FOR ZETA FOR LAYER     2 ZONE     2
 SOLVING FOR ZETA FOR LAYER     3 ZONE     2
 
 SOLVING FOR HEAD 

 NO OUTPUT CONTROL FOR STRESS PERIOD    1   TIME STEP  761
 SOLVING FOR ZETA FOR LAYER     1 ZONE     2
 SOLVING FOR ZETA FOR LAYER     2 ZONE     2
 SOLVING FOR ZETA FOR LAYER     3 ZONE     2
 
 SOLVING FOR HEAD 

 NO OUTPUT CONTROL FOR STRESS PERIOD    1   TIME STEP  762
 SOLVING FOR ZETA FOR LAYER     1 ZONE     2
 SOLVING FOR ZETA FOR LAYER     2 ZONE     2
 SOLVING FOR ZETA FOR LAYER     3 ZONE     2
 
 SOLVING FOR HEAD 

 NO OUTPUT CONTROL FOR STRESS PERIOD    1   TIME STEP  763
 SOLVING FOR ZETA FOR LAYER     1 ZONE     2
 SOLVING FOR ZETA FOR LAYER     2 ZONE     2
 SOLVING FOR ZETA FOR LAYER     3 ZONE     2
 
 SOLVING FOR HEAD 

 NO OUTPUT CONTROL FOR STRESS PERIOD    1   TIME STEP  764
 SOLVING FOR ZETA FOR LAYER     1 ZONE     2
 SOLVING FOR ZETA FOR LAYER     2 ZONE     2
 SOLVING FOR ZETA FOR LAYER     3 ZONE     2
 
 SOLVING FOR HEAD 

 NO OUTPUT CONTROL FOR STRESS PERIOD    1   TIME STEP  765
 SOLVING FOR ZETA FOR LAYER     1 ZONE     2
 SOLVING FOR ZETA FOR LAYER     2 ZONE     2
 SOLVING FOR ZETA FOR LAYER     3 ZONE     2
 
 SOLVING FOR HEAD 

 NO OUTPUT CONTROL FOR STRESS PERIOD    1   TIME STEP  766
 SOLVING FOR ZETA FOR LAYER     1 ZONE     2
 SOLVING FOR ZETA FOR LAYER     2 ZONE     2
 SOLVING FOR ZETA FOR LAYER     3 ZONE     2
 
 SOLVING FOR HEAD 

 NO OUTPUT CONTROL FOR STRESS PERIOD    1   TIME STEP  767
 SOLVING FOR ZETA FOR LAYER     1 ZONE     2
 SOLVING FOR ZETA FOR LAYER     2 ZONE     2
 SOLVING FOR ZETA FOR LAYER     3 ZONE     2
 
 SOLVING FOR HEAD 

 NO OUTPUT CONTROL FOR STRESS PERIOD    1   TIME STEP  768
 SOLVING FOR ZETA FOR LAYER     1 ZONE     2
 SOLVING FOR ZETA FOR LAYER     2 ZONE     2
 SOLVING FOR ZETA FOR LAYER     3 ZONE     2
 
 SOLVING FOR HEAD 

 NO OUTPUT CONTROL FOR STRESS PERIOD    1   TIME STEP  769
 SOLVING FOR ZETA FOR LAYER     1 ZONE     2
 SOLVING FOR ZETA FOR LAYER     2 ZONE     2
 SOLVING FOR ZETA FOR LAYER     3 ZONE     2
 
 SOLVING FOR HEAD 

 NO OUTPUT CONTROL FOR STRESS PERIOD    1   TIME STEP  770
 SOLVING FOR ZETA FOR LAYER     1 ZONE     2
 SOLVING FOR ZETA FOR LAYER     2 ZONE     2
 SOLVING FOR ZETA FOR LAYER     3 ZONE     2
 
 SOLVING FOR HEAD 

 NO OUTPUT CONTROL FOR STRESS PERIOD    1   TIME STEP  771
 SOLVING FOR ZETA FOR LAYER     1 ZONE     2
 SOLVING FOR ZETA FOR LAYER     2 ZONE     2
 SOLVING FOR ZETA FOR LAYER     3 ZONE     2
 
 SOLVING FOR HEAD 

 NO OUTPUT CONTROL FOR STRESS PERIOD    1   TIME STEP  772
 SOLVING FOR ZETA FOR LAYER     1 ZONE     2
 SOLVING FOR ZETA FOR LAYER     2 ZONE     2
 SOLVING FOR ZETA FOR LAYER     3 ZONE     2
 
 SOLVING FOR HEAD 

 NO OUTPUT CONTROL FOR STRESS PERIOD    1   TIME STEP  773
 SOLVING FOR ZETA FOR LAYER     1 ZONE     2
 SOLVING FOR ZETA FOR LAYER     2 ZONE     2
 SOLVING FOR ZETA FOR LAYER     3 ZONE     2
 
 SOLVING FOR HEAD 

 NO OUTPUT CONTROL FOR STRESS PERIOD    1   TIME STEP  774
 SOLVING FOR ZETA FOR LAYER     1 ZONE     2
 SOLVING FOR ZETA FOR LAYER     2 ZONE     2
 SOLVING FOR ZETA FOR LAYER     3 ZONE     2
 
 SOLVING FOR HEAD 

 NO OUTPUT CONTROL FOR STRESS PERIOD    1   TIME STEP  775
 SOLVING FOR ZETA FOR LAYER     1 ZONE     2
 SOLVING FOR ZETA FOR LAYER     2 ZONE     2
 SOLVING FOR ZETA FOR LAYER     3 ZONE     2
 
 SOLVING FOR HEAD 

 NO OUTPUT CONTROL FOR STRESS PERIOD    1   TIME STEP  776
 SOLVING FOR ZETA FOR LAYER     1 ZONE     2
 SOLVING FOR ZETA FOR LAYER     2 ZONE     2
 SOLVING FOR ZETA FOR LAYER     3 ZONE     2
 
 SOLVING FOR HEAD 

 NO OUTPUT CONTROL FOR STRESS PERIOD    1   TIME STEP  777
 SOLVING FOR ZETA FOR LAYER     1 ZONE     2
 SOLVING FOR ZETA FOR LAYER     2 ZONE     2
 SOLVING FOR ZETA FOR LAYER     3 ZONE     2
 
 SOLVING FOR HEAD 

 NO OUTPUT CONTROL FOR STRESS PERIOD    1   TIME STEP  778
 SOLVING FOR ZETA FOR LAYER     1 ZONE     2
 SOLVING FOR ZETA FOR LAYER     2 ZONE     2
 SOLVING FOR ZETA FOR LAYER     3 ZONE     2
 
 SOLVING FOR HEAD 

 NO OUTPUT CONTROL FOR STRESS PERIOD    1   TIME STEP  779
 SOLVING FOR ZETA FOR LAYER     1 ZONE     2
 SOLVING FOR ZETA FOR LAYER     2 ZONE     2
 SOLVING FOR ZETA FOR LAYER     3 ZONE     2
 
 SOLVING FOR HEAD 

 NO OUTPUT CONTROL FOR STRESS PERIOD    1   TIME STEP  780
 SOLVING FOR ZETA FOR LAYER     1 ZONE     2
 SOLVING FOR ZETA FOR LAYER     2 ZONE     2
 SOLVING FOR ZETA FOR LAYER     3 ZONE     2
 
 SOLVING FOR HEAD 

 NO OUTPUT CONTROL FOR STRESS PERIOD    1   TIME STEP  781
 SOLVING FOR ZETA FOR LAYER     1 ZONE     2
 SOLVING FOR ZETA FOR LAYER     2 ZONE     2
 SOLVING FOR ZETA FOR LAYER     3 ZONE     2
 
 SOLVING FOR HEAD 

 NO OUTPUT CONTROL FOR STRESS PERIOD    1   TIME STEP  782
 SOLVING FOR ZETA FOR LAYER     1 ZONE     2
 SOLVING FOR ZETA FOR LAYER     2 ZONE     2
 SOLVING FOR ZETA FOR LAYER     3 ZONE     2
 
 SOLVING FOR HEAD 

 NO OUTPUT CONTROL FOR STRESS PERIOD    1   TIME STEP  783
 SOLVING FOR ZETA FOR LAYER     1 ZONE     2
 SOLVING FOR ZETA FOR LAYER     2 ZONE     2
 SOLVING FOR ZETA FOR LAYER     3 ZONE     2
 
 SOLVING FOR HEAD 

 NO OUTPUT CONTROL FOR STRESS PERIOD    1   TIME STEP  784
 SOLVING FOR ZETA FOR LAYER     1 ZONE     2
 SOLVING FOR ZETA FOR LAYER     2 ZONE     2
 SOLVING FOR ZETA FOR LAYER     3 ZONE     2
 
 SOLVING FOR HEAD 

 NO OUTPUT CONTROL FOR STRESS PERIOD    1   TIME STEP  785
 SOLVING FOR ZETA FOR LAYER     1 ZONE     2
 SOLVING FOR ZETA FOR LAYER     2 ZONE     2
 SOLVING FOR ZETA FOR LAYER     3 ZONE     2
 
 SOLVING FOR HEAD 

 NO OUTPUT CONTROL FOR STRESS PERIOD    1   TIME STEP  786
 SOLVING FOR ZETA FOR LAYER     1 ZONE     2
 SOLVING FOR ZETA FOR LAYER     2 ZONE     2
 SOLVING FOR ZETA FOR LAYER     3 ZONE     2
 
 SOLVING FOR HEAD 

 NO OUTPUT CONTROL FOR STRESS PERIOD    1   TIME STEP  787
 SOLVING FOR ZETA FOR LAYER     1 ZONE     2
 SOLVING FOR ZETA FOR LAYER     2 ZONE     2
 SOLVING FOR ZETA FOR LAYER     3 ZONE     2
 
 SOLVING FOR HEAD 

 NO OUTPUT CONTROL FOR STRESS PERIOD    1   TIME STEP  788
 SOLVING FOR ZETA FOR LAYER     1 ZONE     2
 SOLVING FOR ZETA FOR LAYER     2 ZONE     2
 SOLVING FOR ZETA FOR LAYER     3 ZONE     2
 
 SOLVING FOR HEAD 

 NO OUTPUT CONTROL FOR STRESS PERIOD    1   TIME STEP  789
 SOLVING FOR ZETA FOR LAYER     1 ZONE     2
 SOLVING FOR ZETA FOR LAYER     2 ZONE     2
 SOLVING FOR ZETA FOR LAYER     3 ZONE     2
 
 SOLVING FOR HEAD 

 NO OUTPUT CONTROL FOR STRESS PERIOD    1   TIME STEP  790
 SOLVING FOR ZETA FOR LAYER     1 ZONE     2
 SOLVING FOR ZETA FOR LAYER     2 ZONE     2
 SOLVING FOR ZETA FOR LAYER     3 ZONE     2
 
 SOLVING FOR HEAD 

 NO OUTPUT CONTROL FOR STRESS PERIOD    1   TIME STEP  791
 SOLVING FOR ZETA FOR LAYER     1 ZONE     2
 SOLVING FOR ZETA FOR LAYER     2 ZONE     2
 SOLVING FOR ZETA FOR LAYER     3 ZONE     2
 
 SOLVING FOR HEAD 

 NO OUTPUT CONTROL FOR STRESS PERIOD    1   TIME STEP  792
 SOLVING FOR ZETA FOR LAYER     1 ZONE     2
 SOLVING FOR ZETA FOR LAYER     2 ZONE     2
 SOLVING FOR ZETA FOR LAYER     3 ZONE     2
 
 SOLVING FOR HEAD 

 NO OUTPUT CONTROL FOR STRESS PERIOD    1   TIME STEP  793
 SOLVING FOR ZETA FOR LAYER     1 ZONE     2
 SOLVING FOR ZETA FOR LAYER     2 ZONE     2
 SOLVING FOR ZETA FOR LAYER     3 ZONE     2
 
 SOLVING FOR HEAD 

 NO OUTPUT CONTROL FOR STRESS PERIOD    1   TIME STEP  794
 SOLVING FOR ZETA FOR LAYER     1 ZONE     2
 SOLVING FOR ZETA FOR LAYER     2 ZONE     2
 SOLVING FOR ZETA FOR LAYER     3 ZONE     2
 
 SOLVING FOR HEAD 

 NO OUTPUT CONTROL FOR STRESS PERIOD    1   TIME STEP  795
 SOLVING FOR ZETA FOR LAYER     1 ZONE     2
 SOLVING FOR ZETA FOR LAYER     2 ZONE     2
 SOLVING FOR ZETA FOR LAYER     3 ZONE     2
 
 SOLVING FOR HEAD 

 NO OUTPUT CONTROL FOR STRESS PERIOD    1   TIME STEP  796
 SOLVING FOR ZETA FOR LAYER     1 ZONE     2
 SOLVING FOR ZETA FOR LAYER     2 ZONE     2
 SOLVING FOR ZETA FOR LAYER     3 ZONE     2
 
 SOLVING FOR HEAD 

 NO OUTPUT CONTROL FOR STRESS PERIOD    1   TIME STEP  797
 SOLVING FOR ZETA FOR LAYER     1 ZONE     2
 SOLVING FOR ZETA FOR LAYER     2 ZONE     2
 SOLVING FOR ZETA FOR LAYER     3 ZONE     2
 
 SOLVING FOR HEAD 

 NO OUTPUT CONTROL FOR STRESS PERIOD    1   TIME STEP  798
 SOLVING FOR ZETA FOR LAYER     1 ZONE     2
 SOLVING FOR ZETA FOR LAYER     2 ZONE     2
 SOLVING FOR ZETA FOR LAYER     3 ZONE     2
 
 SOLVING FOR HEAD 

 NO OUTPUT CONTROL FOR STRESS PERIOD    1   TIME STEP  799
 SOLVING FOR ZETA FOR LAYER     1 ZONE     2
 SOLVING FOR ZETA FOR LAYER     2 ZONE     2
 SOLVING FOR ZETA FOR LAYER     3 ZONE     2
 
 SOLVING FOR HEAD 

 OUTPUT CONTROL FOR STRESS PERIOD    1   TIME STEP  800
    PRINT BUDGET
    SAVE HEAD FOR ALL LAYERS
 SOLVING FOR ZETA FOR LAYER     1 ZONE     2
 SOLVING FOR ZETA FOR LAYER     2 ZONE     2
 SOLVING FOR ZETA FOR LAYER     3 ZONE     2
 UBUDSV SAVING "      ZETASRF  1" ON UNIT 55 AT TIME STEP800, STRESS PERIOD    1


                      VOLUMETRIC SWI ZONE BUDGET FOR ENTIRE MODEL
                     AT END OF TIME STEP  800 IN STRESS PERIOD   1
                                      ZONE     1
  -----------------------------------------------------------------------------------

        CUMULATIVE VOLUMES      L**3       RATES FOR THIS TIME STEP      L**3/T
        ------------------                 ------------------------

              IN:                                      IN:
              ---                                      ---
             BOUNDARIES =   334807776.0000            BOUNDARIES =        5640.3354
          CONSTANT HEAD =           0.0000         CONSTANT HEAD =           0.0000
            ZONE CHANGE =    11596485.0000           ZONE CHANGE =         120.7521
       ZONE CHG TIP/TOE =   185883616.0000      ZONE CHG TIP/TOE =        1761.5931
            ZONE MIXING =     1048413.6875           ZONE MIXING =           1.7951

               TOTAL IN =   533336288.0000              TOTAL IN =        7524.4756

             OUT:                                     OUT:
             ----                                     ----
             BOUNDARIES =   216200048.0000            BOUNDARIES =        4160.3965
          CONSTANT HEAD =           0.0000         CONSTANT HEAD =           0.0000
            ZONE CHANGE =   197544304.0000           ZONE CHANGE =        1891.8787
       ZONE CHG TIP/TOE =      301338.0625      ZONE CHG TIP/TOE =           1.9955
            ZONE MIXING =    49828004.0000           ZONE MIXING =         693.2108

              TOTAL OUT =   463873696.0000             TOTAL OUT =        6747.4819

               IN - OUT =    69462592.0000              IN - OUT =         776.9937

    PERCENT DISCREPANCY =          13.93     PERCENT DISCREPANCY =          10.89



                      VOLUMETRIC SWI ZONE BUDGET FOR ENTIRE MODEL
                     AT END OF TIME STEP  800 IN STRESS PERIOD   1
                                      ZONE     2
  -----------------------------------------------------------------------------------

        CUMULATIVE VOLUMES      L**3       RATES FOR THIS TIME STEP      L**3/T
        ------------------                 ------------------------

              IN:                                      IN:
              ---                                      ---
             BOUNDARIES =    66858044.0000            BOUNDARIES =         961.2940
          CONSTANT HEAD =           0.0000         CONSTANT HEAD =           0.0000
            ZONE CHANGE =    11623809.0000           ZONE CHANGE =         133.8113
       ZONE CHG TIP/TOE =   124352256.0000      ZONE CHG TIP/TOE =        1092.7590
            ZONE MIXING =    49828004.0000           ZONE MIXING =         693.2108

               TOTAL IN =   252662112.0000              TOTAL IN =        2881.0752

             OUT:                                     OUT:
             ----                                     ----
             BOUNDARIES =   185669152.0000            BOUNDARIES =        2444.6606
          CONSTANT HEAD =           0.0000         CONSTANT HEAD =           0.0000
            ZONE CHANGE =   135552128.0000           ZONE CHANGE =        1208.2278
       ZONE CHG TIP/TOE =      113121.7969      ZONE CHG TIP/TOE =           4.4589
            ZONE MIXING =     1048413.6875           ZONE MIXING =           1.7951

              TOTAL OUT =   322382816.0000             TOTAL OUT =        3659.1426

               IN - OUT =   -69720704.0000              IN - OUT =        -778.0674

    PERCENT DISCREPANCY =         -24.25     PERCENT DISCREPANCY =         -23.79


 HEAD WILL BE SAVED ON UNIT   51 AT END OF TIME STEP  800, STRESS PERIOD    1
1
  VOLUMETRIC BUDGET FOR ENTIRE MODEL AT END OF TIME STEP  800, STRESS PERIOD   1
  ------------------------------------------------------------------------------

     CUMULATIVE VOLUMES      L**3       RATES FOR THIS TIME STEP      L**3/T
     ------------------                 ------------------------

           IN:                                      IN:
           ---                                      ---
             STORAGE =           0.0000               STORAGE =           0.0000
       CONSTANT HEAD =           0.0000         CONSTANT HEAD =           0.0000
          SWIADDTOCH =           0.0000            SWIADDTOCH =           0.0000
               WELLS =           0.0000                 WELLS =           0.0000
     HEAD DEP BOUNDS =    59104004.0000       HEAD DEP BOUNDS =         739.8669
            RECHARGE =   342561280.0000              RECHARGE =        5861.7627

            TOTAL IN =   401665280.0000              TOTAL IN =        6601.6294

          OUT:                                     OUT:
          ----                                     ----
             STORAGE =           0.0000               STORAGE =           0.0000
       CONSTANT HEAD =           0.0000         CONSTANT HEAD =           0.0000
          SWIADDTOCH =           0.0000            SWIADDTOCH =           0.0000
               WELLS =           0.0000                 WELLS =           0.0000
     HEAD DEP BOUNDS =   401869312.0000       HEAD DEP BOUNDS =        6605.0571
            RECHARGE =           0.0000              RECHARGE =           0.0000

           TOTAL OUT =   401869312.0000             TOTAL OUT =        6605.0571

            IN - OUT =     -204032.0000              IN - OUT =          -3.4277

 PERCENT DISCREPANCY =          -0.05     PERCENT DISCREPANCY =          -0.05






         TIME SUMMARY AT END OF TIME STEP  800 IN STRESS PERIOD    1
                    SECONDS     MINUTES      HOURS       DAYS        YEARS
                    -----------------------------------------------------------
   TIME STEP LENGTH 6.31152E+06 1.05192E+05  1753.2      73.050     0.20000    
 STRESS PERIOD TIME 5.04925E+09 8.41542E+07 1.40257E+06  58440.      160.00    
         TOTAL TIME 5.04925E+09 8.41542E+07 1.40257E+06  58440.      160.00    
1
 
 SOLVING FOR HEAD 

 NO OUTPUT CONTROL FOR STRESS PERIOD    1   TIME STEP  801
 SOLVING FOR ZETA FOR LAYER     1 ZONE     2
 SOLVING FOR ZETA FOR LAYER     2 ZONE     2
 SOLVING FOR ZETA FOR LAYER     3 ZONE     2
 
 SOLVING FOR HEAD 

 NO OUTPUT CONTROL FOR STRESS PERIOD    1   TIME STEP  802
 SOLVING FOR ZETA FOR LAYER     1 ZONE     2
 SOLVING FOR ZETA FOR LAYER     2 ZONE     2
 SOLVING FOR ZETA FOR LAYER     3 ZONE     2
 
 SOLVING FOR HEAD 

 NO OUTPUT CONTROL FOR STRESS PERIOD    1   TIME STEP  803
 SOLVING FOR ZETA FOR LAYER     1 ZONE     2
 SOLVING FOR ZETA FOR LAYER     2 ZONE     2
 SOLVING FOR ZETA FOR LAYER     3 ZONE     2
 
 SOLVING FOR HEAD 

 NO OUTPUT CONTROL FOR STRESS PERIOD    1   TIME STEP  804
 SOLVING FOR ZETA FOR LAYER     1 ZONE     2
 SOLVING FOR ZETA FOR LAYER     2 ZONE     2
 SOLVING FOR ZETA FOR LAYER     3 ZONE     2
 
 SOLVING FOR HEAD 

 NO OUTPUT CONTROL FOR STRESS PERIOD    1   TIME STEP  805
 SOLVING FOR ZETA FOR LAYER     1 ZONE     2
 SOLVING FOR ZETA FOR LAYER     2 ZONE     2
 SOLVING FOR ZETA FOR LAYER     3 ZONE     2
 
 SOLVING FOR HEAD 

 NO OUTPUT CONTROL FOR STRESS PERIOD    1   TIME STEP  806
 SOLVING FOR ZETA FOR LAYER     1 ZONE     2
 SOLVING FOR ZETA FOR LAYER     2 ZONE     2
 SOLVING FOR ZETA FOR LAYER     3 ZONE     2
 
 SOLVING FOR HEAD 

 NO OUTPUT CONTROL FOR STRESS PERIOD    1   TIME STEP  807
 SOLVING FOR ZETA FOR LAYER     1 ZONE     2
 SOLVING FOR ZETA FOR LAYER     2 ZONE     2
 SOLVING FOR ZETA FOR LAYER     3 ZONE     2
 
 SOLVING FOR HEAD 

 NO OUTPUT CONTROL FOR STRESS PERIOD    1   TIME STEP  808
 SOLVING FOR ZETA FOR LAYER     1 ZONE     2
 SOLVING FOR ZETA FOR LAYER     2 ZONE     2
 SOLVING FOR ZETA FOR LAYER     3 ZONE     2
 
 SOLVING FOR HEAD 

 NO OUTPUT CONTROL FOR STRESS PERIOD    1   TIME STEP  809
 SOLVING FOR ZETA FOR LAYER     1 ZONE     2
 SOLVING FOR ZETA FOR LAYER     2 ZONE     2
 SOLVING FOR ZETA FOR LAYER     3 ZONE     2
 
 SOLVING FOR HEAD 

 NO OUTPUT CONTROL FOR STRESS PERIOD    1   TIME STEP  810
 SOLVING FOR ZETA FOR LAYER     1 ZONE     2
 SOLVING FOR ZETA FOR LAYER     2 ZONE     2
 SOLVING FOR ZETA FOR LAYER     3 ZONE     2
 
 SOLVING FOR HEAD 

 NO OUTPUT CONTROL FOR STRESS PERIOD    1   TIME STEP  811
 SOLVING FOR ZETA FOR LAYER     1 ZONE     2
 SOLVING FOR ZETA FOR LAYER     2 ZONE     2
 SOLVING FOR ZETA FOR LAYER     3 ZONE     2
 
 SOLVING FOR HEAD 

 NO OUTPUT CONTROL FOR STRESS PERIOD    1   TIME STEP  812
 SOLVING FOR ZETA FOR LAYER     1 ZONE     2
 SOLVING FOR ZETA FOR LAYER     2 ZONE     2
 SOLVING FOR ZETA FOR LAYER     3 ZONE     2
 
 SOLVING FOR HEAD 

 NO OUTPUT CONTROL FOR STRESS PERIOD    1   TIME STEP  813
 SOLVING FOR ZETA FOR LAYER     1 ZONE     2
 SOLVING FOR ZETA FOR LAYER     2 ZONE     2
 SOLVING FOR ZETA FOR LAYER     3 ZONE     2
 
 SOLVING FOR HEAD 

 NO OUTPUT CONTROL FOR STRESS PERIOD    1   TIME STEP  814
 SOLVING FOR ZETA FOR LAYER     1 ZONE     2
 SOLVING FOR ZETA FOR LAYER     2 ZONE     2
 SOLVING FOR ZETA FOR LAYER     3 ZONE     2
 
 SOLVING FOR HEAD 

 NO OUTPUT CONTROL FOR STRESS PERIOD    1   TIME STEP  815
 SOLVING FOR ZETA FOR LAYER     1 ZONE     2
 SOLVING FOR ZETA FOR LAYER     2 ZONE     2
 SOLVING FOR ZETA FOR LAYER     3 ZONE     2
 
 SOLVING FOR HEAD 

 NO OUTPUT CONTROL FOR STRESS PERIOD    1   TIME STEP  816
 SOLVING FOR ZETA FOR LAYER     1 ZONE     2
 SOLVING FOR ZETA FOR LAYER     2 ZONE     2
 SOLVING FOR ZETA FOR LAYER     3 ZONE     2
 
 SOLVING FOR HEAD 

 NO OUTPUT CONTROL FOR STRESS PERIOD    1   TIME STEP  817
 SOLVING FOR ZETA FOR LAYER     1 ZONE     2
 SOLVING FOR ZETA FOR LAYER     2 ZONE     2
 SOLVING FOR ZETA FOR LAYER     3 ZONE     2
 
 SOLVING FOR HEAD 

 NO OUTPUT CONTROL FOR STRESS PERIOD    1   TIME STEP  818
 SOLVING FOR ZETA FOR LAYER     1 ZONE     2
 SOLVING FOR ZETA FOR LAYER     2 ZONE     2
 SOLVING FOR ZETA FOR LAYER     3 ZONE     2
 
 SOLVING FOR HEAD 

 NO OUTPUT CONTROL FOR STRESS PERIOD    1   TIME STEP  819
 SOLVING FOR ZETA FOR LAYER     1 ZONE     2
 SOLVING FOR ZETA FOR LAYER     2 ZONE     2
 SOLVING FOR ZETA FOR LAYER     3 ZONE     2
 
 SOLVING FOR HEAD 

 NO OUTPUT CONTROL FOR STRESS PERIOD    1   TIME STEP  820
 SOLVING FOR ZETA FOR LAYER     1 ZONE     2
 SOLVING FOR ZETA FOR LAYER     2 ZONE     2
 SOLVING FOR ZETA FOR LAYER     3 ZONE     2
 
 SOLVING FOR HEAD 

 NO OUTPUT CONTROL FOR STRESS PERIOD    1   TIME STEP  821
 SOLVING FOR ZETA FOR LAYER     1 ZONE     2
 SOLVING FOR ZETA FOR LAYER     2 ZONE     2
 SOLVING FOR ZETA FOR LAYER     3 ZONE     2
 
 SOLVING FOR HEAD 

 NO OUTPUT CONTROL FOR STRESS PERIOD    1   TIME STEP  822
 SOLVING FOR ZETA FOR LAYER     1 ZONE     2
 SOLVING FOR ZETA FOR LAYER     2 ZONE     2
 SOLVING FOR ZETA FOR LAYER     3 ZONE     2
 
 SOLVING FOR HEAD 

 NO OUTPUT CONTROL FOR STRESS PERIOD    1   TIME STEP  823
 SOLVING FOR ZETA FOR LAYER     1 ZONE     2
 SOLVING FOR ZETA FOR LAYER     2 ZONE     2
 SOLVING FOR ZETA FOR LAYER     3 ZONE     2
 
 SOLVING FOR HEAD 

 NO OUTPUT CONTROL FOR STRESS PERIOD    1   TIME STEP  824
 SOLVING FOR ZETA FOR LAYER     1 ZONE     2
 SOLVING FOR ZETA FOR LAYER     2 ZONE     2
 SOLVING FOR ZETA FOR LAYER     3 ZONE     2
 
 SOLVING FOR HEAD 

 NO OUTPUT CONTROL FOR STRESS PERIOD    1   TIME STEP  825
 SOLVING FOR ZETA FOR LAYER     1 ZONE     2
 SOLVING FOR ZETA FOR LAYER     2 ZONE     2
 SOLVING FOR ZETA FOR LAYER     3 ZONE     2
 
 SOLVING FOR HEAD 

 NO OUTPUT CONTROL FOR STRESS PERIOD    1   TIME STEP  826
 SOLVING FOR ZETA FOR LAYER     1 ZONE     2
 SOLVING FOR ZETA FOR LAYER     2 ZONE     2
 SOLVING FOR ZETA FOR LAYER     3 ZONE     2
 
 SOLVING FOR HEAD 

 NO OUTPUT CONTROL FOR STRESS PERIOD    1   TIME STEP  827
 SOLVING FOR ZETA FOR LAYER     1 ZONE     2
 SOLVING FOR ZETA FOR LAYER     2 ZONE     2
 SOLVING FOR ZETA FOR LAYER     3 ZONE     2
 
 SOLVING FOR HEAD 

 NO OUTPUT CONTROL FOR STRESS PERIOD    1   TIME STEP  828
 SOLVING FOR ZETA FOR LAYER     1 ZONE     2
 SOLVING FOR ZETA FOR LAYER     2 ZONE     2
 SOLVING FOR ZETA FOR LAYER     3 ZONE     2
 
 SOLVING FOR HEAD 

 NO OUTPUT CONTROL FOR STRESS PERIOD    1   TIME STEP  829
 SOLVING FOR ZETA FOR LAYER     1 ZONE     2
 SOLVING FOR ZETA FOR LAYER     2 ZONE     2
 SOLVING FOR ZETA FOR LAYER     3 ZONE     2
 
 SOLVING FOR HEAD 

 NO OUTPUT CONTROL FOR STRESS PERIOD    1   TIME STEP  830
 SOLVING FOR ZETA FOR LAYER     1 ZONE     2
 SOLVING FOR ZETA FOR LAYER     2 ZONE     2
 SOLVING FOR ZETA FOR LAYER     3 ZONE     2
 
 SOLVING FOR HEAD 

 NO OUTPUT CONTROL FOR STRESS PERIOD    1   TIME STEP  831
 SOLVING FOR ZETA FOR LAYER     1 ZONE     2
 SOLVING FOR ZETA FOR LAYER     2 ZONE     2
 SOLVING FOR ZETA FOR LAYER     3 ZONE     2
 
 SOLVING FOR HEAD 

 NO OUTPUT CONTROL FOR STRESS PERIOD    1   TIME STEP  832
 SOLVING FOR ZETA FOR LAYER     1 ZONE     2
 SOLVING FOR ZETA FOR LAYER     2 ZONE     2
 SOLVING FOR ZETA FOR LAYER     3 ZONE     2
 
 SOLVING FOR HEAD 

 NO OUTPUT CONTROL FOR STRESS PERIOD    1   TIME STEP  833
 SOLVING FOR ZETA FOR LAYER     1 ZONE     2
 SOLVING FOR ZETA FOR LAYER     2 ZONE     2
 SOLVING FOR ZETA FOR LAYER     3 ZONE     2
 
 SOLVING FOR HEAD 

 NO OUTPUT CONTROL FOR STRESS PERIOD    1   TIME STEP  834
 SOLVING FOR ZETA FOR LAYER     1 ZONE     2
 SOLVING FOR ZETA FOR LAYER     2 ZONE     2
 SOLVING FOR ZETA FOR LAYER     3 ZONE     2
 
 SOLVING FOR HEAD 

 NO OUTPUT CONTROL FOR STRESS PERIOD    1   TIME STEP  835
 SOLVING FOR ZETA FOR LAYER     1 ZONE     2
 SOLVING FOR ZETA FOR LAYER     2 ZONE     2
 SOLVING FOR ZETA FOR LAYER     3 ZONE     2
 
 SOLVING FOR HEAD 

 NO OUTPUT CONTROL FOR STRESS PERIOD    1   TIME STEP  836
 SOLVING FOR ZETA FOR LAYER     1 ZONE     2
 SOLVING FOR ZETA FOR LAYER     2 ZONE     2
 SOLVING FOR ZETA FOR LAYER     3 ZONE     2
 
 SOLVING FOR HEAD 

 NO OUTPUT CONTROL FOR STRESS PERIOD    1   TIME STEP  837
 SOLVING FOR ZETA FOR LAYER     1 ZONE     2
 SOLVING FOR ZETA FOR LAYER     2 ZONE     2
 SOLVING FOR ZETA FOR LAYER     3 ZONE     2
 
 SOLVING FOR HEAD 

 NO OUTPUT CONTROL FOR STRESS PERIOD    1   TIME STEP  838
 SOLVING FOR ZETA FOR LAYER     1 ZONE     2
 SOLVING FOR ZETA FOR LAYER     2 ZONE     2
 SOLVING FOR ZETA FOR LAYER     3 ZONE     2
 
 SOLVING FOR HEAD 

 NO OUTPUT CONTROL FOR STRESS PERIOD    1   TIME STEP  839
 SOLVING FOR ZETA FOR LAYER     1 ZONE     2
 SOLVING FOR ZETA FOR LAYER     2 ZONE     2
 SOLVING FOR ZETA FOR LAYER     3 ZONE     2
 
 SOLVING FOR HEAD 

 NO OUTPUT CONTROL FOR STRESS PERIOD    1   TIME STEP  840
 SOLVING FOR ZETA FOR LAYER     1 ZONE     2
 SOLVING FOR ZETA FOR LAYER     2 ZONE     2
 SOLVING FOR ZETA FOR LAYER     3 ZONE     2
 
 SOLVING FOR HEAD 

 NO OUTPUT CONTROL FOR STRESS PERIOD    1   TIME STEP  841
 SOLVING FOR ZETA FOR LAYER     1 ZONE     2
 SOLVING FOR ZETA FOR LAYER     2 ZONE     2
 SOLVING FOR ZETA FOR LAYER     3 ZONE     2
 
 SOLVING FOR HEAD 

 NO OUTPUT CONTROL FOR STRESS PERIOD    1   TIME STEP  842
 SOLVING FOR ZETA FOR LAYER     1 ZONE     2
 SOLVING FOR ZETA FOR LAYER     2 ZONE     2
 SOLVING FOR ZETA FOR LAYER     3 ZONE     2
 
 SOLVING FOR HEAD 

 NO OUTPUT CONTROL FOR STRESS PERIOD    1   TIME STEP  843
 SOLVING FOR ZETA FOR LAYER     1 ZONE     2
 SOLVING FOR ZETA FOR LAYER     2 ZONE     2
 SOLVING FOR ZETA FOR LAYER     3 ZONE     2
 
 SOLVING FOR HEAD 

 NO OUTPUT CONTROL FOR STRESS PERIOD    1   TIME STEP  844
 SOLVING FOR ZETA FOR LAYER     1 ZONE     2
 SOLVING FOR ZETA FOR LAYER     2 ZONE     2
 SOLVING FOR ZETA FOR LAYER     3 ZONE     2
 
 SOLVING FOR HEAD 

 NO OUTPUT CONTROL FOR STRESS PERIOD    1   TIME STEP  845
 SOLVING FOR ZETA FOR LAYER     1 ZONE     2
 SOLVING FOR ZETA FOR LAYER     2 ZONE     2
 SOLVING FOR ZETA FOR LAYER     3 ZONE     2
 
 SOLVING FOR HEAD 

 NO OUTPUT CONTROL FOR STRESS PERIOD    1   TIME STEP  846
 SOLVING FOR ZETA FOR LAYER     1 ZONE     2
 SOLVING FOR ZETA FOR LAYER     2 ZONE     2
 SOLVING FOR ZETA FOR LAYER     3 ZONE     2
 
 SOLVING FOR HEAD 

 NO OUTPUT CONTROL FOR STRESS PERIOD    1   TIME STEP  847
 SOLVING FOR ZETA FOR LAYER     1 ZONE     2
 SOLVING FOR ZETA FOR LAYER     2 ZONE     2
 SOLVING FOR ZETA FOR LAYER     3 ZONE     2
 
 SOLVING FOR HEAD 

 NO OUTPUT CONTROL FOR STRESS PERIOD    1   TIME STEP  848
 SOLVING FOR ZETA FOR LAYER     1 ZONE     2
 SOLVING FOR ZETA FOR LAYER     2 ZONE     2
 SOLVING FOR ZETA FOR LAYER     3 ZONE     2
 
 SOLVING FOR HEAD 

 NO OUTPUT CONTROL FOR STRESS PERIOD    1   TIME STEP  849
 SOLVING FOR ZETA FOR LAYER     1 ZONE     2
 SOLVING FOR ZETA FOR LAYER     2 ZONE     2
 SOLVING FOR ZETA FOR LAYER     3 ZONE     2
 
 SOLVING FOR HEAD 

 NO OUTPUT CONTROL FOR STRESS PERIOD    1   TIME STEP  850
 SOLVING FOR ZETA FOR LAYER     1 ZONE     2
 SOLVING FOR ZETA FOR LAYER     2 ZONE     2
 SOLVING FOR ZETA FOR LAYER     3 ZONE     2
 
 SOLVING FOR HEAD 

 NO OUTPUT CONTROL FOR STRESS PERIOD    1   TIME STEP  851
 SOLVING FOR ZETA FOR LAYER     1 ZONE     2
 SOLVING FOR ZETA FOR LAYER     2 ZONE     2
 SOLVING FOR ZETA FOR LAYER     3 ZONE     2
 
 SOLVING FOR HEAD 

 NO OUTPUT CONTROL FOR STRESS PERIOD    1   TIME STEP  852
 SOLVING FOR ZETA FOR LAYER     1 ZONE     2
 SOLVING FOR ZETA FOR LAYER     2 ZONE     2
 SOLVING FOR ZETA FOR LAYER     3 ZONE     2
 
 SOLVING FOR HEAD 

 NO OUTPUT CONTROL FOR STRESS PERIOD    1   TIME STEP  853
 SOLVING FOR ZETA FOR LAYER     1 ZONE     2
 SOLVING FOR ZETA FOR LAYER     2 ZONE     2
 SOLVING FOR ZETA FOR LAYER     3 ZONE     2
 
 SOLVING FOR HEAD 

 NO OUTPUT CONTROL FOR STRESS PERIOD    1   TIME STEP  854
 SOLVING FOR ZETA FOR LAYER     1 ZONE     2
 SOLVING FOR ZETA FOR LAYER     2 ZONE     2
 SOLVING FOR ZETA FOR LAYER     3 ZONE     2
 
 SOLVING FOR HEAD 

 NO OUTPUT CONTROL FOR STRESS PERIOD    1   TIME STEP  855
 SOLVING FOR ZETA FOR LAYER     1 ZONE     2
 SOLVING FOR ZETA FOR LAYER     2 ZONE     2
 SOLVING FOR ZETA FOR LAYER     3 ZONE     2
 
 SOLVING FOR HEAD 

 NO OUTPUT CONTROL FOR STRESS PERIOD    1   TIME STEP  856
 SOLVING FOR ZETA FOR LAYER     1 ZONE     2
 SOLVING FOR ZETA FOR LAYER     2 ZONE     2
 SOLVING FOR ZETA FOR LAYER     3 ZONE     2
 
 SOLVING FOR HEAD 

 NO OUTPUT CONTROL FOR STRESS PERIOD    1   TIME STEP  857
 SOLVING FOR ZETA FOR LAYER     1 ZONE     2
 SOLVING FOR ZETA FOR LAYER     2 ZONE     2
 SOLVING FOR ZETA FOR LAYER     3 ZONE     2
 
 SOLVING FOR HEAD 

 NO OUTPUT CONTROL FOR STRESS PERIOD    1   TIME STEP  858
 SOLVING FOR ZETA FOR LAYER     1 ZONE     2
 SOLVING FOR ZETA FOR LAYER     2 ZONE     2
 SOLVING FOR ZETA FOR LAYER     3 ZONE     2
 
 SOLVING FOR HEAD 

 NO OUTPUT CONTROL FOR STRESS PERIOD    1   TIME STEP  859
 SOLVING FOR ZETA FOR LAYER     1 ZONE     2
 SOLVING FOR ZETA FOR LAYER     2 ZONE     2
 SOLVING FOR ZETA FOR LAYER     3 ZONE     2
 
 SOLVING FOR HEAD 

 NO OUTPUT CONTROL FOR STRESS PERIOD    1   TIME STEP  860
 SOLVING FOR ZETA FOR LAYER     1 ZONE     2
 SOLVING FOR ZETA FOR LAYER     2 ZONE     2
 SOLVING FOR ZETA FOR LAYER     3 ZONE     2
 
 SOLVING FOR HEAD 

 NO OUTPUT CONTROL FOR STRESS PERIOD    1   TIME STEP  861
 SOLVING FOR ZETA FOR LAYER     1 ZONE     2
 SOLVING FOR ZETA FOR LAYER     2 ZONE     2
 SOLVING FOR ZETA FOR LAYER     3 ZONE     2
 
 SOLVING FOR HEAD 

 NO OUTPUT CONTROL FOR STRESS PERIOD    1   TIME STEP  862
 SOLVING FOR ZETA FOR LAYER     1 ZONE     2
 SOLVING FOR ZETA FOR LAYER     2 ZONE     2
 SOLVING FOR ZETA FOR LAYER     3 ZONE     2
 
 SOLVING FOR HEAD 

 NO OUTPUT CONTROL FOR STRESS PERIOD    1   TIME STEP  863
 SOLVING FOR ZETA FOR LAYER     1 ZONE     2
 SOLVING FOR ZETA FOR LAYER     2 ZONE     2
 SOLVING FOR ZETA FOR LAYER     3 ZONE     2
 
 SOLVING FOR HEAD 

 NO OUTPUT CONTROL FOR STRESS PERIOD    1   TIME STEP  864
 SOLVING FOR ZETA FOR LAYER     1 ZONE     2
 SOLVING FOR ZETA FOR LAYER     2 ZONE     2
 SOLVING FOR ZETA FOR LAYER     3 ZONE     2
 
 SOLVING FOR HEAD 

 NO OUTPUT CONTROL FOR STRESS PERIOD    1   TIME STEP  865
 SOLVING FOR ZETA FOR LAYER     1 ZONE     2
 SOLVING FOR ZETA FOR LAYER     2 ZONE     2
 SOLVING FOR ZETA FOR LAYER     3 ZONE     2
 
 SOLVING FOR HEAD 

 NO OUTPUT CONTROL FOR STRESS PERIOD    1   TIME STEP  866
 SOLVING FOR ZETA FOR LAYER     1 ZONE     2
 SOLVING FOR ZETA FOR LAYER     2 ZONE     2
 SOLVING FOR ZETA FOR LAYER     3 ZONE     2
 
 SOLVING FOR HEAD 

 NO OUTPUT CONTROL FOR STRESS PERIOD    1   TIME STEP  867
 SOLVING FOR ZETA FOR LAYER     1 ZONE     2
 SOLVING FOR ZETA FOR LAYER     2 ZONE     2
 SOLVING FOR ZETA FOR LAYER     3 ZONE     2
 
 SOLVING FOR HEAD 

 NO OUTPUT CONTROL FOR STRESS PERIOD    1   TIME STEP  868
 SOLVING FOR ZETA FOR LAYER     1 ZONE     2
 SOLVING FOR ZETA FOR LAYER     2 ZONE     2
 SOLVING FOR ZETA FOR LAYER     3 ZONE     2
 
 SOLVING FOR HEAD 

 NO OUTPUT CONTROL FOR STRESS PERIOD    1   TIME STEP  869
 SOLVING FOR ZETA FOR LAYER     1 ZONE     2
 SOLVING FOR ZETA FOR LAYER     2 ZONE     2
 SOLVING FOR ZETA FOR LAYER     3 ZONE     2
 
 SOLVING FOR HEAD 

 NO OUTPUT CONTROL FOR STRESS PERIOD    1   TIME STEP  870
 SOLVING FOR ZETA FOR LAYER     1 ZONE     2
 SOLVING FOR ZETA FOR LAYER     2 ZONE     2
 SOLVING FOR ZETA FOR LAYER     3 ZONE     2
 
 SOLVING FOR HEAD 

 NO OUTPUT CONTROL FOR STRESS PERIOD    1   TIME STEP  871
 SOLVING FOR ZETA FOR LAYER     1 ZONE     2
 SOLVING FOR ZETA FOR LAYER     2 ZONE     2
 SOLVING FOR ZETA FOR LAYER     3 ZONE     2
 
 SOLVING FOR HEAD 

 NO OUTPUT CONTROL FOR STRESS PERIOD    1   TIME STEP  872
 SOLVING FOR ZETA FOR LAYER     1 ZONE     2
 SOLVING FOR ZETA FOR LAYER     2 ZONE     2
 SOLVING FOR ZETA FOR LAYER     3 ZONE     2
 
 SOLVING FOR HEAD 

 NO OUTPUT CONTROL FOR STRESS PERIOD    1   TIME STEP  873
 SOLVING FOR ZETA FOR LAYER     1 ZONE     2
 SOLVING FOR ZETA FOR LAYER     2 ZONE     2
 SOLVING FOR ZETA FOR LAYER     3 ZONE     2
 
 SOLVING FOR HEAD 

 NO OUTPUT CONTROL FOR STRESS PERIOD    1   TIME STEP  874
 SOLVING FOR ZETA FOR LAYER     1 ZONE     2
 SOLVING FOR ZETA FOR LAYER     2 ZONE     2
 SOLVING FOR ZETA FOR LAYER     3 ZONE     2
 
 SOLVING FOR HEAD 

 NO OUTPUT CONTROL FOR STRESS PERIOD    1   TIME STEP  875
 SOLVING FOR ZETA FOR LAYER     1 ZONE     2
 SOLVING FOR ZETA FOR LAYER     2 ZONE     2
 SOLVING FOR ZETA FOR LAYER     3 ZONE     2
 
 SOLVING FOR HEAD 

 NO OUTPUT CONTROL FOR STRESS PERIOD    1   TIME STEP  876
 SOLVING FOR ZETA FOR LAYER     1 ZONE     2
 SOLVING FOR ZETA FOR LAYER     2 ZONE     2
 SOLVING FOR ZETA FOR LAYER     3 ZONE     2
 
 SOLVING FOR HEAD 

 NO OUTPUT CONTROL FOR STRESS PERIOD    1   TIME STEP  877
 SOLVING FOR ZETA FOR LAYER     1 ZONE     2
 SOLVING FOR ZETA FOR LAYER     2 ZONE     2
 SOLVING FOR ZETA FOR LAYER     3 ZONE     2
 
 SOLVING FOR HEAD 

 NO OUTPUT CONTROL FOR STRESS PERIOD    1   TIME STEP  878
 SOLVING FOR ZETA FOR LAYER     1 ZONE     2
 SOLVING FOR ZETA FOR LAYER     2 ZONE     2
 SOLVING FOR ZETA FOR LAYER     3 ZONE     2
 
 SOLVING FOR HEAD 

 NO OUTPUT CONTROL FOR STRESS PERIOD    1   TIME STEP  879
 SOLVING FOR ZETA FOR LAYER     1 ZONE     2
 SOLVING FOR ZETA FOR LAYER     2 ZONE     2
 SOLVING FOR ZETA FOR LAYER     3 ZONE     2
 
 SOLVING FOR HEAD 

 NO OUTPUT CONTROL FOR STRESS PERIOD    1   TIME STEP  880
 SOLVING FOR ZETA FOR LAYER     1 ZONE     2
 SOLVING FOR ZETA FOR LAYER     2 ZONE     2
 SOLVING FOR ZETA FOR LAYER     3 ZONE     2
 
 SOLVING FOR HEAD 

 NO OUTPUT CONTROL FOR STRESS PERIOD    1   TIME STEP  881
 SOLVING FOR ZETA FOR LAYER     1 ZONE     2
 SOLVING FOR ZETA FOR LAYER     2 ZONE     2
 SOLVING FOR ZETA FOR LAYER     3 ZONE     2
 
 SOLVING FOR HEAD 

 NO OUTPUT CONTROL FOR STRESS PERIOD    1   TIME STEP  882
 SOLVING FOR ZETA FOR LAYER     1 ZONE     2
 SOLVING FOR ZETA FOR LAYER     2 ZONE     2
 SOLVING FOR ZETA FOR LAYER     3 ZONE     2
 
 SOLVING FOR HEAD 

 NO OUTPUT CONTROL FOR STRESS PERIOD    1   TIME STEP  883
 SOLVING FOR ZETA FOR LAYER     1 ZONE     2
 SOLVING FOR ZETA FOR LAYER     2 ZONE     2
 SOLVING FOR ZETA FOR LAYER     3 ZONE     2
 
 SOLVING FOR HEAD 

 NO OUTPUT CONTROL FOR STRESS PERIOD    1   TIME STEP  884
 SOLVING FOR ZETA FOR LAYER     1 ZONE     2
 SOLVING FOR ZETA FOR LAYER     2 ZONE     2
 SOLVING FOR ZETA FOR LAYER     3 ZONE     2
 
 SOLVING FOR HEAD 

 NO OUTPUT CONTROL FOR STRESS PERIOD    1   TIME STEP  885
 SOLVING FOR ZETA FOR LAYER     1 ZONE     2
 SOLVING FOR ZETA FOR LAYER     2 ZONE     2
 SOLVING FOR ZETA FOR LAYER     3 ZONE     2
 
 SOLVING FOR HEAD 

 NO OUTPUT CONTROL FOR STRESS PERIOD    1   TIME STEP  886
 SOLVING FOR ZETA FOR LAYER     1 ZONE     2
 SOLVING FOR ZETA FOR LAYER     2 ZONE     2
 SOLVING FOR ZETA FOR LAYER     3 ZONE     2
 
 SOLVING FOR HEAD 

 NO OUTPUT CONTROL FOR STRESS PERIOD    1   TIME STEP  887
 SOLVING FOR ZETA FOR LAYER     1 ZONE     2
 SOLVING FOR ZETA FOR LAYER     2 ZONE     2
 SOLVING FOR ZETA FOR LAYER     3 ZONE     2
 
 SOLVING FOR HEAD 

 NO OUTPUT CONTROL FOR STRESS PERIOD    1   TIME STEP  888
 SOLVING FOR ZETA FOR LAYER     1 ZONE     2
 SOLVING FOR ZETA FOR LAYER     2 ZONE     2
 SOLVING FOR ZETA FOR LAYER     3 ZONE     2
 
 SOLVING FOR HEAD 

 NO OUTPUT CONTROL FOR STRESS PERIOD    1   TIME STEP  889
 SOLVING FOR ZETA FOR LAYER     1 ZONE     2
 SOLVING FOR ZETA FOR LAYER     2 ZONE     2
 SOLVING FOR ZETA FOR LAYER     3 ZONE     2
 
 SOLVING FOR HEAD 

 NO OUTPUT CONTROL FOR STRESS PERIOD    1   TIME STEP  890
 SOLVING FOR ZETA FOR LAYER     1 ZONE     2
 SOLVING FOR ZETA FOR LAYER     2 ZONE     2
 SOLVING FOR ZETA FOR LAYER     3 ZONE     2
 
 SOLVING FOR HEAD 

 NO OUTPUT CONTROL FOR STRESS PERIOD    1   TIME STEP  891
 SOLVING FOR ZETA FOR LAYER     1 ZONE     2
 SOLVING FOR ZETA FOR LAYER     2 ZONE     2
 SOLVING FOR ZETA FOR LAYER     3 ZONE     2
 
 SOLVING FOR HEAD 

 NO OUTPUT CONTROL FOR STRESS PERIOD    1   TIME STEP  892
 SOLVING FOR ZETA FOR LAYER     1 ZONE     2
 SOLVING FOR ZETA FOR LAYER     2 ZONE     2
 SOLVING FOR ZETA FOR LAYER     3 ZONE     2
 
 SOLVING FOR HEAD 

 NO OUTPUT CONTROL FOR STRESS PERIOD    1   TIME STEP  893
 SOLVING FOR ZETA FOR LAYER     1 ZONE     2
 SOLVING FOR ZETA FOR LAYER     2 ZONE     2
 SOLVING FOR ZETA FOR LAYER     3 ZONE     2
 
 SOLVING FOR HEAD 

 NO OUTPUT CONTROL FOR STRESS PERIOD    1   TIME STEP  894
 SOLVING FOR ZETA FOR LAYER     1 ZONE     2
 SOLVING FOR ZETA FOR LAYER     2 ZONE     2
 SOLVING FOR ZETA FOR LAYER     3 ZONE     2
 
 SOLVING FOR HEAD 

 NO OUTPUT CONTROL FOR STRESS PERIOD    1   TIME STEP  895
 SOLVING FOR ZETA FOR LAYER     1 ZONE     2
 SOLVING FOR ZETA FOR LAYER     2 ZONE     2
 SOLVING FOR ZETA FOR LAYER     3 ZONE     2
 
 SOLVING FOR HEAD 

 NO OUTPUT CONTROL FOR STRESS PERIOD    1   TIME STEP  896
 SOLVING FOR ZETA FOR LAYER     1 ZONE     2
 SOLVING FOR ZETA FOR LAYER     2 ZONE     2
 SOLVING FOR ZETA FOR LAYER     3 ZONE     2
 
 SOLVING FOR HEAD 

 NO OUTPUT CONTROL FOR STRESS PERIOD    1   TIME STEP  897
 SOLVING FOR ZETA FOR LAYER     1 ZONE     2
 SOLVING FOR ZETA FOR LAYER     2 ZONE     2
 SOLVING FOR ZETA FOR LAYER     3 ZONE     2
 
 SOLVING FOR HEAD 

 NO OUTPUT CONTROL FOR STRESS PERIOD    1   TIME STEP  898
 SOLVING FOR ZETA FOR LAYER     1 ZONE     2
 SOLVING FOR ZETA FOR LAYER     2 ZONE     2
 SOLVING FOR ZETA FOR LAYER     3 ZONE     2
 
 SOLVING FOR HEAD 

 NO OUTPUT CONTROL FOR STRESS PERIOD    1   TIME STEP  899
 SOLVING FOR ZETA FOR LAYER     1 ZONE     2
 SOLVING FOR ZETA FOR LAYER     2 ZONE     2
 SOLVING FOR ZETA FOR LAYER     3 ZONE     2
 
 SOLVING FOR HEAD 

 OUTPUT CONTROL FOR STRESS PERIOD    1   TIME STEP  900
    PRINT BUDGET
    SAVE HEAD FOR ALL LAYERS
 SOLVING FOR ZETA FOR LAYER     1 ZONE     2
 SOLVING FOR ZETA FOR LAYER     2 ZONE     2
 SOLVING FOR ZETA FOR LAYER     3 ZONE     2
 UBUDSV SAVING "      ZETASRF  1" ON UNIT 55 AT TIME STEP900, STRESS PERIOD    1


                      VOLUMETRIC SWI ZONE BUDGET FOR ENTIRE MODEL
                     AT END OF TIME STEP  900 IN STRESS PERIOD   1
                                      ZONE     1
  -----------------------------------------------------------------------------------

        CUMULATIVE VOLUMES      L**3       RATES FOR THIS TIME STEP      L**3/T
        ------------------                 ------------------------

              IN:                                      IN:
              ---                                      ---
             BOUNDARIES =   376561728.0000            BOUNDARIES =        5679.1440
          CONSTANT HEAD =           0.0000         CONSTANT HEAD =           0.0000
            ZONE CHANGE =    12562187.0000           ZONE CHANGE =          70.3657
       ZONE CHG TIP/TOE =   203377728.0000      ZONE CHG TIP/TOE =        1407.4685
            ZONE MIXING =     1077628.6250           ZONE MIXING =       3.7982E-03

               TOTAL IN =   593579264.0000              TOTAL IN =        7156.9824

             OUT:                                     OUT:
             ----                                     ----
             BOUNDARIES =   244277072.0000            BOUNDARIES =        4355.2188
          CONSTANT HEAD =           0.0000         CONSTANT HEAD =           0.0000
            ZONE CHANGE =   215959952.0000           ZONE CHANGE =        1456.2974
       ZONE CHG TIP/TOE =      322924.8125      ZONE CHG TIP/TOE =           2.6137
            ZONE MIXING =    55769604.0000           ZONE MIXING =         648.9618

              TOTAL OUT =   516329536.0000             TOTAL OUT =        6463.0918

               IN - OUT =    77249728.0000              IN - OUT =         693.8906

    PERCENT DISCREPANCY =          13.92     PERCENT DISCREPANCY =          10.19



                      VOLUMETRIC SWI ZONE BUDGET FOR ENTIRE MODEL
                     AT END OF TIME STEP  900 IN STRESS PERIOD   1
                                      ZONE     2
  -----------------------------------------------------------------------------------

        CUMULATIVE VOLUMES      L**3       RATES FOR THIS TIME STEP      L**3/T
        ------------------                 ------------------------

              IN:                                      IN:
              ---                                      ---
             BOUNDARIES =    75461072.0000            BOUNDARIES =        1024.6240
          CONSTANT HEAD =           0.0000         CONSTANT HEAD =           0.0000
            ZONE CHANGE =    12541187.0000           ZONE CHANGE =          48.4786
       ZONE CHG TIP/TOE =   134971232.0000      ZONE CHG TIP/TOE =         863.6852
            ZONE MIXING =    55769604.0000           ZONE MIXING =         648.9618

               TOTAL IN =   278743104.0000              TOTAL IN =        2585.7495

             OUT:                                     OUT:
             ----                                     ----
             BOUNDARIES =   207974832.0000            BOUNDARIES =        2352.0603
          CONSTANT HEAD =           0.0000         CONSTANT HEAD =           0.0000
            ZONE CHANGE =   147098624.0000           ZONE CHANGE =         928.1095
       ZONE CHG TIP/TOE =      125689.7812      ZONE CHG TIP/TOE =           0.5467
            ZONE MIXING =     1077628.6250           ZONE MIXING =       3.7982E-03

              TOTAL OUT =   356276800.0000             TOTAL OUT =        3280.7205

               IN - OUT =   -77533696.0000              IN - OUT =        -694.9709

    PERCENT DISCREPANCY =         -24.42     PERCENT DISCREPANCY =         -23.69


 HEAD WILL BE SAVED ON UNIT   51 AT END OF TIME STEP  900, STRESS PERIOD    1
1
  VOLUMETRIC BUDGET FOR ENTIRE MODEL AT END OF TIME STEP  900, STRESS PERIOD   1
  ------------------------------------------------------------------------------

     CUMULATIVE VOLUMES      L**3       RATES FOR THIS TIME STEP      L**3/T
     ------------------                 ------------------------

           IN:                                      IN:
           ---                                      ---
             STORAGE =           0.0000               STORAGE =           0.0000
       CONSTANT HEAD =           0.0000         CONSTANT HEAD =           0.0000
          SWIADDTOCH =           0.0000            SWIADDTOCH =           0.0000
               WELLS =           0.0000                 WELLS =           0.0000
     HEAD DEP BOUNDS =    66640852.0000       HEAD DEP BOUNDS =         842.0053
            RECHARGE =   385380480.0000              RECHARGE =        5861.7627

            TOTAL IN =   452021344.0000              TOTAL IN =        6703.7681

          OUT:                                     OUT:
          ----                                     ----
             STORAGE =           0.0000               STORAGE =           0.0000
       CONSTANT HEAD =           0.0000         CONSTANT HEAD =           0.0000
          SWIADDTOCH =           0.0000            SWIADDTOCH =           0.0000
               WELLS =           0.0000                 WELLS =           0.0000
     HEAD DEP BOUNDS =   452251968.0000       HEAD DEP BOUNDS =        6707.2788
            RECHARGE =           0.0000              RECHARGE =           0.0000

           TOTAL OUT =   452251968.0000             TOTAL OUT =        6707.2788

            IN - OUT =     -230624.0000              IN - OUT =          -3.5107

 PERCENT DISCREPANCY =          -0.05     PERCENT DISCREPANCY =          -0.05






         TIME SUMMARY AT END OF TIME STEP  900 IN STRESS PERIOD    1
                    SECONDS     MINUTES      HOURS       DAYS        YEARS
                    -----------------------------------------------------------
   TIME STEP LENGTH 6.31152E+06 1.05192E+05  1753.2      73.050     0.20000    
 STRESS PERIOD TIME 5.68041E+09 9.46735E+07 1.57789E+06  65745.      180.00    
         TOTAL TIME 5.68041E+09 9.46735E+07 1.57789E+06  65745.      180.00    
1
 
 SOLVING FOR HEAD 

 NO OUTPUT CONTROL FOR STRESS PERIOD    1   TIME STEP  901
 SOLVING FOR ZETA FOR LAYER     1 ZONE     2
 SOLVING FOR ZETA FOR LAYER     2 ZONE     2
 SOLVING FOR ZETA FOR LAYER     3 ZONE     2
 
 SOLVING FOR HEAD 

 NO OUTPUT CONTROL FOR STRESS PERIOD    1   TIME STEP  902
 SOLVING FOR ZETA FOR LAYER     1 ZONE     2
 SOLVING FOR ZETA FOR LAYER     2 ZONE     2
 SOLVING FOR ZETA FOR LAYER     3 ZONE     2
 
 SOLVING FOR HEAD 

 NO OUTPUT CONTROL FOR STRESS PERIOD    1   TIME STEP  903
 SOLVING FOR ZETA FOR LAYER     1 ZONE     2
 SOLVING FOR ZETA FOR LAYER     2 ZONE     2
 SOLVING FOR ZETA FOR LAYER     3 ZONE     2
 
 SOLVING FOR HEAD 

 NO OUTPUT CONTROL FOR STRESS PERIOD    1   TIME STEP  904
 SOLVING FOR ZETA FOR LAYER     1 ZONE     2
 SOLVING FOR ZETA FOR LAYER     2 ZONE     2
 SOLVING FOR ZETA FOR LAYER     3 ZONE     2
 
 SOLVING FOR HEAD 

 NO OUTPUT CONTROL FOR STRESS PERIOD    1   TIME STEP  905
 SOLVING FOR ZETA FOR LAYER     1 ZONE     2
 SOLVING FOR ZETA FOR LAYER     2 ZONE     2
 SOLVING FOR ZETA FOR LAYER     3 ZONE     2
 
 SOLVING FOR HEAD 

 NO OUTPUT CONTROL FOR STRESS PERIOD    1   TIME STEP  906
 SOLVING FOR ZETA FOR LAYER     1 ZONE     2
 SOLVING FOR ZETA FOR LAYER     2 ZONE     2
 SOLVING FOR ZETA FOR LAYER     3 ZONE     2
 
 SOLVING FOR HEAD 

 NO OUTPUT CONTROL FOR STRESS PERIOD    1   TIME STEP  907
 SOLVING FOR ZETA FOR LAYER     1 ZONE     2
 SOLVING FOR ZETA FOR LAYER     2 ZONE     2
 SOLVING FOR ZETA FOR LAYER     3 ZONE     2
 
 SOLVING FOR HEAD 

 NO OUTPUT CONTROL FOR STRESS PERIOD    1   TIME STEP  908
 SOLVING FOR ZETA FOR LAYER     1 ZONE     2
 SOLVING FOR ZETA FOR LAYER     2 ZONE     2
 SOLVING FOR ZETA FOR LAYER     3 ZONE     2
 
 SOLVING FOR HEAD 

 NO OUTPUT CONTROL FOR STRESS PERIOD    1   TIME STEP  909
 SOLVING FOR ZETA FOR LAYER     1 ZONE     2
 SOLVING FOR ZETA FOR LAYER     2 ZONE     2
 SOLVING FOR ZETA FOR LAYER     3 ZONE     2
 
 SOLVING FOR HEAD 

 NO OUTPUT CONTROL FOR STRESS PERIOD    1   TIME STEP  910
 SOLVING FOR ZETA FOR LAYER     1 ZONE     2
 SOLVING FOR ZETA FOR LAYER     2 ZONE     2
 SOLVING FOR ZETA FOR LAYER     3 ZONE     2
 
 SOLVING FOR HEAD 

 NO OUTPUT CONTROL FOR STRESS PERIOD    1   TIME STEP  911
 SOLVING FOR ZETA FOR LAYER     1 ZONE     2
 SOLVING FOR ZETA FOR LAYER     2 ZONE     2
 SOLVING FOR ZETA FOR LAYER     3 ZONE     2
 
 SOLVING FOR HEAD 

 NO OUTPUT CONTROL FOR STRESS PERIOD    1   TIME STEP  912
 SOLVING FOR ZETA FOR LAYER     1 ZONE     2
 SOLVING FOR ZETA FOR LAYER     2 ZONE     2
 SOLVING FOR ZETA FOR LAYER     3 ZONE     2
 
 SOLVING FOR HEAD 

 NO OUTPUT CONTROL FOR STRESS PERIOD    1   TIME STEP  913
 SOLVING FOR ZETA FOR LAYER     1 ZONE     2
 SOLVING FOR ZETA FOR LAYER     2 ZONE     2
 SOLVING FOR ZETA FOR LAYER     3 ZONE     2
 
 SOLVING FOR HEAD 

 NO OUTPUT CONTROL FOR STRESS PERIOD    1   TIME STEP  914
 SOLVING FOR ZETA FOR LAYER     1 ZONE     2
 SOLVING FOR ZETA FOR LAYER     2 ZONE     2
 SOLVING FOR ZETA FOR LAYER     3 ZONE     2
 
 SOLVING FOR HEAD 

 NO OUTPUT CONTROL FOR STRESS PERIOD    1   TIME STEP  915
 SOLVING FOR ZETA FOR LAYER     1 ZONE     2
 SOLVING FOR ZETA FOR LAYER     2 ZONE     2
 SOLVING FOR ZETA FOR LAYER     3 ZONE     2
 
 SOLVING FOR HEAD 

 NO OUTPUT CONTROL FOR STRESS PERIOD    1   TIME STEP  916
 SOLVING FOR ZETA FOR LAYER     1 ZONE     2
 SOLVING FOR ZETA FOR LAYER     2 ZONE     2
 SOLVING FOR ZETA FOR LAYER     3 ZONE     2
 
 SOLVING FOR HEAD 

 NO OUTPUT CONTROL FOR STRESS PERIOD    1   TIME STEP  917
 SOLVING FOR ZETA FOR LAYER     1 ZONE     2
 SOLVING FOR ZETA FOR LAYER     2 ZONE     2
 SOLVING FOR ZETA FOR LAYER     3 ZONE     2
 
 SOLVING FOR HEAD 

 NO OUTPUT CONTROL FOR STRESS PERIOD    1   TIME STEP  918
 SOLVING FOR ZETA FOR LAYER     1 ZONE     2
 SOLVING FOR ZETA FOR LAYER     2 ZONE     2
 SOLVING FOR ZETA FOR LAYER     3 ZONE     2
 
 SOLVING FOR HEAD 

 NO OUTPUT CONTROL FOR STRESS PERIOD    1   TIME STEP  919
 SOLVING FOR ZETA FOR LAYER     1 ZONE     2
 SOLVING FOR ZETA FOR LAYER     2 ZONE     2
 SOLVING FOR ZETA FOR LAYER     3 ZONE     2
 
 SOLVING FOR HEAD 

 NO OUTPUT CONTROL FOR STRESS PERIOD    1   TIME STEP  920
 SOLVING FOR ZETA FOR LAYER     1 ZONE     2
 SOLVING FOR ZETA FOR LAYER     2 ZONE     2
 SOLVING FOR ZETA FOR LAYER     3 ZONE     2
 
 SOLVING FOR HEAD 

 NO OUTPUT CONTROL FOR STRESS PERIOD    1   TIME STEP  921
 SOLVING FOR ZETA FOR LAYER     1 ZONE     2
 SOLVING FOR ZETA FOR LAYER     2 ZONE     2
 SOLVING FOR ZETA FOR LAYER     3 ZONE     2
 
 SOLVING FOR HEAD 

 NO OUTPUT CONTROL FOR STRESS PERIOD    1   TIME STEP  922
 SOLVING FOR ZETA FOR LAYER     1 ZONE     2
 SOLVING FOR ZETA FOR LAYER     2 ZONE     2
 SOLVING FOR ZETA FOR LAYER     3 ZONE     2
 
 SOLVING FOR HEAD 

 NO OUTPUT CONTROL FOR STRESS PERIOD    1   TIME STEP  923
 SOLVING FOR ZETA FOR LAYER     1 ZONE     2
 SOLVING FOR ZETA FOR LAYER     2 ZONE     2
 SOLVING FOR ZETA FOR LAYER     3 ZONE     2
 
 SOLVING FOR HEAD 

 NO OUTPUT CONTROL FOR STRESS PERIOD    1   TIME STEP  924
 SOLVING FOR ZETA FOR LAYER     1 ZONE     2
 SOLVING FOR ZETA FOR LAYER     2 ZONE     2
 SOLVING FOR ZETA FOR LAYER     3 ZONE     2
 
 SOLVING FOR HEAD 

 NO OUTPUT CONTROL FOR STRESS PERIOD    1   TIME STEP  925
 SOLVING FOR ZETA FOR LAYER     1 ZONE     2
 SOLVING FOR ZETA FOR LAYER     2 ZONE     2
 SOLVING FOR ZETA FOR LAYER     3 ZONE     2
 
 SOLVING FOR HEAD 

 NO OUTPUT CONTROL FOR STRESS PERIOD    1   TIME STEP  926
 SOLVING FOR ZETA FOR LAYER     1 ZONE     2
 SOLVING FOR ZETA FOR LAYER     2 ZONE     2
 SOLVING FOR ZETA FOR LAYER     3 ZONE     2
 
 SOLVING FOR HEAD 

 NO OUTPUT CONTROL FOR STRESS PERIOD    1   TIME STEP  927
 SOLVING FOR ZETA FOR LAYER     1 ZONE     2
 SOLVING FOR ZETA FOR LAYER     2 ZONE     2
 SOLVING FOR ZETA FOR LAYER     3 ZONE     2
 
 SOLVING FOR HEAD 

 NO OUTPUT CONTROL FOR STRESS PERIOD    1   TIME STEP  928
 SOLVING FOR ZETA FOR LAYER     1 ZONE     2
 SOLVING FOR ZETA FOR LAYER     2 ZONE     2
 SOLVING FOR ZETA FOR LAYER     3 ZONE     2
 
 SOLVING FOR HEAD 

 NO OUTPUT CONTROL FOR STRESS PERIOD    1   TIME STEP  929
 SOLVING FOR ZETA FOR LAYER     1 ZONE     2
 SOLVING FOR ZETA FOR LAYER     2 ZONE     2
 SOLVING FOR ZETA FOR LAYER     3 ZONE     2
 
 SOLVING FOR HEAD 

 NO OUTPUT CONTROL FOR STRESS PERIOD    1   TIME STEP  930
 SOLVING FOR ZETA FOR LAYER     1 ZONE     2
 SOLVING FOR ZETA FOR LAYER     2 ZONE     2
 SOLVING FOR ZETA FOR LAYER     3 ZONE     2
 
 SOLVING FOR HEAD 

 NO OUTPUT CONTROL FOR STRESS PERIOD    1   TIME STEP  931
 SOLVING FOR ZETA FOR LAYER     1 ZONE     2
 SOLVING FOR ZETA FOR LAYER     2 ZONE     2
 SOLVING FOR ZETA FOR LAYER     3 ZONE     2
 
 SOLVING FOR HEAD 

 NO OUTPUT CONTROL FOR STRESS PERIOD    1   TIME STEP  932
 SOLVING FOR ZETA FOR LAYER     1 ZONE     2
 SOLVING FOR ZETA FOR LAYER     2 ZONE     2
 SOLVING FOR ZETA FOR LAYER     3 ZONE     2
 
 SOLVING FOR HEAD 

 NO OUTPUT CONTROL FOR STRESS PERIOD    1   TIME STEP  933
 SOLVING FOR ZETA FOR LAYER     1 ZONE     2
 SOLVING FOR ZETA FOR LAYER     2 ZONE     2
 SOLVING FOR ZETA FOR LAYER     3 ZONE     2
 
 SOLVING FOR HEAD 

 NO OUTPUT CONTROL FOR STRESS PERIOD    1   TIME STEP  934
 SOLVING FOR ZETA FOR LAYER     1 ZONE     2
 SOLVING FOR ZETA FOR LAYER     2 ZONE     2
 SOLVING FOR ZETA FOR LAYER     3 ZONE     2
 
 SOLVING FOR HEAD 

 NO OUTPUT CONTROL FOR STRESS PERIOD    1   TIME STEP  935
 SOLVING FOR ZETA FOR LAYER     1 ZONE     2
 SOLVING FOR ZETA FOR LAYER     2 ZONE     2
 SOLVING FOR ZETA FOR LAYER     3 ZONE     2
 
 SOLVING FOR HEAD 

 NO OUTPUT CONTROL FOR STRESS PERIOD    1   TIME STEP  936
 SOLVING FOR ZETA FOR LAYER     1 ZONE     2
 SOLVING FOR ZETA FOR LAYER     2 ZONE     2
 SOLVING FOR ZETA FOR LAYER     3 ZONE     2
 
 SOLVING FOR HEAD 

 NO OUTPUT CONTROL FOR STRESS PERIOD    1   TIME STEP  937
 SOLVING FOR ZETA FOR LAYER     1 ZONE     2
 SOLVING FOR ZETA FOR LAYER     2 ZONE     2
 SOLVING FOR ZETA FOR LAYER     3 ZONE     2
 
 SOLVING FOR HEAD 

 NO OUTPUT CONTROL FOR STRESS PERIOD    1   TIME STEP  938
 SOLVING FOR ZETA FOR LAYER     1 ZONE     2
 SOLVING FOR ZETA FOR LAYER     2 ZONE     2
 SOLVING FOR ZETA FOR LAYER     3 ZONE     2
 
 SOLVING FOR HEAD 

 NO OUTPUT CONTROL FOR STRESS PERIOD    1   TIME STEP  939
 SOLVING FOR ZETA FOR LAYER     1 ZONE     2
 SOLVING FOR ZETA FOR LAYER     2 ZONE     2
 SOLVING FOR ZETA FOR LAYER     3 ZONE     2
 
 SOLVING FOR HEAD 

 NO OUTPUT CONTROL FOR STRESS PERIOD    1   TIME STEP  940
 SOLVING FOR ZETA FOR LAYER     1 ZONE     2
 SOLVING FOR ZETA FOR LAYER     2 ZONE     2
 SOLVING FOR ZETA FOR LAYER     3 ZONE     2
 
 SOLVING FOR HEAD 

 NO OUTPUT CONTROL FOR STRESS PERIOD    1   TIME STEP  941
 SOLVING FOR ZETA FOR LAYER     1 ZONE     2
 SOLVING FOR ZETA FOR LAYER     2 ZONE     2
 SOLVING FOR ZETA FOR LAYER     3 ZONE     2
 
 SOLVING FOR HEAD 

 NO OUTPUT CONTROL FOR STRESS PERIOD    1   TIME STEP  942
 SOLVING FOR ZETA FOR LAYER     1 ZONE     2
 SOLVING FOR ZETA FOR LAYER     2 ZONE     2
 SOLVING FOR ZETA FOR LAYER     3 ZONE     2
 
 SOLVING FOR HEAD 

 NO OUTPUT CONTROL FOR STRESS PERIOD    1   TIME STEP  943
 SOLVING FOR ZETA FOR LAYER     1 ZONE     2
 SOLVING FOR ZETA FOR LAYER     2 ZONE     2
 SOLVING FOR ZETA FOR LAYER     3 ZONE     2
 
 SOLVING FOR HEAD 

 NO OUTPUT CONTROL FOR STRESS PERIOD    1   TIME STEP  944
 SOLVING FOR ZETA FOR LAYER     1 ZONE     2
 SOLVING FOR ZETA FOR LAYER     2 ZONE     2
 SOLVING FOR ZETA FOR LAYER     3 ZONE     2
 
 SOLVING FOR HEAD 

 NO OUTPUT CONTROL FOR STRESS PERIOD    1   TIME STEP  945
 SOLVING FOR ZETA FOR LAYER     1 ZONE     2
 SOLVING FOR ZETA FOR LAYER     2 ZONE     2
 SOLVING FOR ZETA FOR LAYER     3 ZONE     2
 
 SOLVING FOR HEAD 

 NO OUTPUT CONTROL FOR STRESS PERIOD    1   TIME STEP  946
 SOLVING FOR ZETA FOR LAYER     1 ZONE     2
 SOLVING FOR ZETA FOR LAYER     2 ZONE     2
 SOLVING FOR ZETA FOR LAYER     3 ZONE     2
 
 SOLVING FOR HEAD 

 NO OUTPUT CONTROL FOR STRESS PERIOD    1   TIME STEP  947
 SOLVING FOR ZETA FOR LAYER     1 ZONE     2
 SOLVING FOR ZETA FOR LAYER     2 ZONE     2
 SOLVING FOR ZETA FOR LAYER     3 ZONE     2
 
 SOLVING FOR HEAD 

 NO OUTPUT CONTROL FOR STRESS PERIOD    1   TIME STEP  948
 SOLVING FOR ZETA FOR LAYER     1 ZONE     2
 SOLVING FOR ZETA FOR LAYER     2 ZONE     2
 SOLVING FOR ZETA FOR LAYER     3 ZONE     2
 
 SOLVING FOR HEAD 

 NO OUTPUT CONTROL FOR STRESS PERIOD    1   TIME STEP  949
 SOLVING FOR ZETA FOR LAYER     1 ZONE     2
 SOLVING FOR ZETA FOR LAYER     2 ZONE     2
 SOLVING FOR ZETA FOR LAYER     3 ZONE     2
 
 SOLVING FOR HEAD 

 NO OUTPUT CONTROL FOR STRESS PERIOD    1   TIME STEP  950
 SOLVING FOR ZETA FOR LAYER     1 ZONE     2
 SOLVING FOR ZETA FOR LAYER     2 ZONE     2
 SOLVING FOR ZETA FOR LAYER     3 ZONE     2
 
 SOLVING FOR HEAD 

 NO OUTPUT CONTROL FOR STRESS PERIOD    1   TIME STEP  951
 SOLVING FOR ZETA FOR LAYER     1 ZONE     2
 SOLVING FOR ZETA FOR LAYER     2 ZONE     2
 SOLVING FOR ZETA FOR LAYER     3 ZONE     2
 
 SOLVING FOR HEAD 

 NO OUTPUT CONTROL FOR STRESS PERIOD    1   TIME STEP  952
 SOLVING FOR ZETA FOR LAYER     1 ZONE     2
 SOLVING FOR ZETA FOR LAYER     2 ZONE     2
 SOLVING FOR ZETA FOR LAYER     3 ZONE     2
 
 SOLVING FOR HEAD 

 NO OUTPUT CONTROL FOR STRESS PERIOD    1   TIME STEP  953
 SOLVING FOR ZETA FOR LAYER     1 ZONE     2
 SOLVING FOR ZETA FOR LAYER     2 ZONE     2
 SOLVING FOR ZETA FOR LAYER     3 ZONE     2
 
 SOLVING FOR HEAD 

 NO OUTPUT CONTROL FOR STRESS PERIOD    1   TIME STEP  954
 SOLVING FOR ZETA FOR LAYER     1 ZONE     2
 SOLVING FOR ZETA FOR LAYER     2 ZONE     2
 SOLVING FOR ZETA FOR LAYER     3 ZONE     2
 
 SOLVING FOR HEAD 

 NO OUTPUT CONTROL FOR STRESS PERIOD    1   TIME STEP  955
 SOLVING FOR ZETA FOR LAYER     1 ZONE     2
 SOLVING FOR ZETA FOR LAYER     2 ZONE     2
 SOLVING FOR ZETA FOR LAYER     3 ZONE     2
 
 SOLVING FOR HEAD 

 NO OUTPUT CONTROL FOR STRESS PERIOD    1   TIME STEP  956
 SOLVING FOR ZETA FOR LAYER     1 ZONE     2
 SOLVING FOR ZETA FOR LAYER     2 ZONE     2
 SOLVING FOR ZETA FOR LAYER     3 ZONE     2
 
 SOLVING FOR HEAD 

 NO OUTPUT CONTROL FOR STRESS PERIOD    1   TIME STEP  957
 SOLVING FOR ZETA FOR LAYER     1 ZONE     2
 SOLVING FOR ZETA FOR LAYER     2 ZONE     2
 SOLVING FOR ZETA FOR LAYER     3 ZONE     2
 
 SOLVING FOR HEAD 

 NO OUTPUT CONTROL FOR STRESS PERIOD    1   TIME STEP  958
 SOLVING FOR ZETA FOR LAYER     1 ZONE     2
 SOLVING FOR ZETA FOR LAYER     2 ZONE     2
 SOLVING FOR ZETA FOR LAYER     3 ZONE     2
 
 SOLVING FOR HEAD 

 NO OUTPUT CONTROL FOR STRESS PERIOD    1   TIME STEP  959
 SOLVING FOR ZETA FOR LAYER     1 ZONE     2
 SOLVING FOR ZETA FOR LAYER     2 ZONE     2
 SOLVING FOR ZETA FOR LAYER     3 ZONE     2
 
 SOLVING FOR HEAD 

 NO OUTPUT CONTROL FOR STRESS PERIOD    1   TIME STEP  960
 SOLVING FOR ZETA FOR LAYER     1 ZONE     2
 SOLVING FOR ZETA FOR LAYER     2 ZONE     2
 SOLVING FOR ZETA FOR LAYER     3 ZONE     2
 
 SOLVING FOR HEAD 

 NO OUTPUT CONTROL FOR STRESS PERIOD    1   TIME STEP  961
 SOLVING FOR ZETA FOR LAYER     1 ZONE     2
 SOLVING FOR ZETA FOR LAYER     2 ZONE     2
 SOLVING FOR ZETA FOR LAYER     3 ZONE     2
 
 SOLVING FOR HEAD 

 NO OUTPUT CONTROL FOR STRESS PERIOD    1   TIME STEP  962
 SOLVING FOR ZETA FOR LAYER     1 ZONE     2
 SOLVING FOR ZETA FOR LAYER     2 ZONE     2
 SOLVING FOR ZETA FOR LAYER     3 ZONE     2
 
 SOLVING FOR HEAD 

 NO OUTPUT CONTROL FOR STRESS PERIOD    1   TIME STEP  963
 SOLVING FOR ZETA FOR LAYER     1 ZONE     2
 SOLVING FOR ZETA FOR LAYER     2 ZONE     2
 SOLVING FOR ZETA FOR LAYER     3 ZONE     2
 
 SOLVING FOR HEAD 

 NO OUTPUT CONTROL FOR STRESS PERIOD    1   TIME STEP  964
 SOLVING FOR ZETA FOR LAYER     1 ZONE     2
 SOLVING FOR ZETA FOR LAYER     2 ZONE     2
 SOLVING FOR ZETA FOR LAYER     3 ZONE     2
 
 SOLVING FOR HEAD 

 NO OUTPUT CONTROL FOR STRESS PERIOD    1   TIME STEP  965
 SOLVING FOR ZETA FOR LAYER     1 ZONE     2
 SOLVING FOR ZETA FOR LAYER     2 ZONE     2
 SOLVING FOR ZETA FOR LAYER     3 ZONE     2
 
 SOLVING FOR HEAD 

 NO OUTPUT CONTROL FOR STRESS PERIOD    1   TIME STEP  966
 SOLVING FOR ZETA FOR LAYER     1 ZONE     2
 SOLVING FOR ZETA FOR LAYER     2 ZONE     2
 SOLVING FOR ZETA FOR LAYER     3 ZONE     2
 
 SOLVING FOR HEAD 

 NO OUTPUT CONTROL FOR STRESS PERIOD    1   TIME STEP  967
 SOLVING FOR ZETA FOR LAYER     1 ZONE     2
 SOLVING FOR ZETA FOR LAYER     2 ZONE     2
 SOLVING FOR ZETA FOR LAYER     3 ZONE     2
 
 SOLVING FOR HEAD 

 NO OUTPUT CONTROL FOR STRESS PERIOD    1   TIME STEP  968
 SOLVING FOR ZETA FOR LAYER     1 ZONE     2
 SOLVING FOR ZETA FOR LAYER     2 ZONE     2
 SOLVING FOR ZETA FOR LAYER     3 ZONE     2
 
 SOLVING FOR HEAD 

 NO OUTPUT CONTROL FOR STRESS PERIOD    1   TIME STEP  969
 SOLVING FOR ZETA FOR LAYER     1 ZONE     2
 SOLVING FOR ZETA FOR LAYER     2 ZONE     2
 SOLVING FOR ZETA FOR LAYER     3 ZONE     2
 
 SOLVING FOR HEAD 

 NO OUTPUT CONTROL FOR STRESS PERIOD    1   TIME STEP  970
 SOLVING FOR ZETA FOR LAYER     1 ZONE     2
 SOLVING FOR ZETA FOR LAYER     2 ZONE     2
 SOLVING FOR ZETA FOR LAYER     3 ZONE     2
 
 SOLVING FOR HEAD 

 NO OUTPUT CONTROL FOR STRESS PERIOD    1   TIME STEP  971
 SOLVING FOR ZETA FOR LAYER     1 ZONE     2
 SOLVING FOR ZETA FOR LAYER     2 ZONE     2
 SOLVING FOR ZETA FOR LAYER     3 ZONE     2
 
 SOLVING FOR HEAD 

 NO OUTPUT CONTROL FOR STRESS PERIOD    1   TIME STEP  972
 SOLVING FOR ZETA FOR LAYER     1 ZONE     2
 SOLVING FOR ZETA FOR LAYER     2 ZONE     2
 SOLVING FOR ZETA FOR LAYER     3 ZONE     2
 
 SOLVING FOR HEAD 

 NO OUTPUT CONTROL FOR STRESS PERIOD    1   TIME STEP  973
 SOLVING FOR ZETA FOR LAYER     1 ZONE     2
 SOLVING FOR ZETA FOR LAYER     2 ZONE     2
 SOLVING FOR ZETA FOR LAYER     3 ZONE     2
 
 SOLVING FOR HEAD 

 NO OUTPUT CONTROL FOR STRESS PERIOD    1   TIME STEP  974
 SOLVING FOR ZETA FOR LAYER     1 ZONE     2
 SOLVING FOR ZETA FOR LAYER     2 ZONE     2
 SOLVING FOR ZETA FOR LAYER     3 ZONE     2
 
 SOLVING FOR HEAD 

 NO OUTPUT CONTROL FOR STRESS PERIOD    1   TIME STEP  975
 SOLVING FOR ZETA FOR LAYER     1 ZONE     2
 SOLVING FOR ZETA FOR LAYER     2 ZONE     2
 SOLVING FOR ZETA FOR LAYER     3 ZONE     2
 
 SOLVING FOR HEAD 

 NO OUTPUT CONTROL FOR STRESS PERIOD    1   TIME STEP  976
 SOLVING FOR ZETA FOR LAYER     1 ZONE     2
 SOLVING FOR ZETA FOR LAYER     2 ZONE     2
 SOLVING FOR ZETA FOR LAYER     3 ZONE     2
 
 SOLVING FOR HEAD 

 NO OUTPUT CONTROL FOR STRESS PERIOD    1   TIME STEP  977
 SOLVING FOR ZETA FOR LAYER     1 ZONE     2
 SOLVING FOR ZETA FOR LAYER     2 ZONE     2
 SOLVING FOR ZETA FOR LAYER     3 ZONE     2
 
 SOLVING FOR HEAD 

 NO OUTPUT CONTROL FOR STRESS PERIOD    1   TIME STEP  978
 SOLVING FOR ZETA FOR LAYER     1 ZONE     2
 SOLVING FOR ZETA FOR LAYER     2 ZONE     2
 SOLVING FOR ZETA FOR LAYER     3 ZONE     2
 
 SOLVING FOR HEAD 

 NO OUTPUT CONTROL FOR STRESS PERIOD    1   TIME STEP  979
 SOLVING FOR ZETA FOR LAYER     1 ZONE     2
 SOLVING FOR ZETA FOR LAYER     2 ZONE     2
 SOLVING FOR ZETA FOR LAYER     3 ZONE     2
 
 SOLVING FOR HEAD 

 NO OUTPUT CONTROL FOR STRESS PERIOD    1   TIME STEP  980
 SOLVING FOR ZETA FOR LAYER     1 ZONE     2
 SOLVING FOR ZETA FOR LAYER     2 ZONE     2
 SOLVING FOR ZETA FOR LAYER     3 ZONE     2
 
 SOLVING FOR HEAD 

 NO OUTPUT CONTROL FOR STRESS PERIOD    1   TIME STEP  981
 SOLVING FOR ZETA FOR LAYER     1 ZONE     2
 SOLVING FOR ZETA FOR LAYER     2 ZONE     2
 SOLVING FOR ZETA FOR LAYER     3 ZONE     2
 
 SOLVING FOR HEAD 

 NO OUTPUT CONTROL FOR STRESS PERIOD    1   TIME STEP  982
 SOLVING FOR ZETA FOR LAYER     1 ZONE     2
 SOLVING FOR ZETA FOR LAYER     2 ZONE     2
 SOLVING FOR ZETA FOR LAYER     3 ZONE     2
 
 SOLVING FOR HEAD 

 NO OUTPUT CONTROL FOR STRESS PERIOD    1   TIME STEP  983
 SOLVING FOR ZETA FOR LAYER     1 ZONE     2
 SOLVING FOR ZETA FOR LAYER     2 ZONE     2
 SOLVING FOR ZETA FOR LAYER     3 ZONE     2
 
 SOLVING FOR HEAD 

 NO OUTPUT CONTROL FOR STRESS PERIOD    1   TIME STEP  984
 SOLVING FOR ZETA FOR LAYER     1 ZONE     2
 SOLVING FOR ZETA FOR LAYER     2 ZONE     2
 SOLVING FOR ZETA FOR LAYER     3 ZONE     2
 
 SOLVING FOR HEAD 

 NO OUTPUT CONTROL FOR STRESS PERIOD    1   TIME STEP  985
 SOLVING FOR ZETA FOR LAYER     1 ZONE     2
 SOLVING FOR ZETA FOR LAYER     2 ZONE     2
 SOLVING FOR ZETA FOR LAYER     3 ZONE     2
 
 SOLVING FOR HEAD 

 NO OUTPUT CONTROL FOR STRESS PERIOD    1   TIME STEP  986
 SOLVING FOR ZETA FOR LAYER     1 ZONE     2
 SOLVING FOR ZETA FOR LAYER     2 ZONE     2
 SOLVING FOR ZETA FOR LAYER     3 ZONE     2
 
 SOLVING FOR HEAD 

 NO OUTPUT CONTROL FOR STRESS PERIOD    1   TIME STEP  987
 SOLVING FOR ZETA FOR LAYER     1 ZONE     2
 SOLVING FOR ZETA FOR LAYER     2 ZONE     2
 SOLVING FOR ZETA FOR LAYER     3 ZONE     2
 
 SOLVING FOR HEAD 

 NO OUTPUT CONTROL FOR STRESS PERIOD    1   TIME STEP  988
 SOLVING FOR ZETA FOR LAYER     1 ZONE     2
 SOLVING FOR ZETA FOR LAYER     2 ZONE     2
 SOLVING FOR ZETA FOR LAYER     3 ZONE     2
 
 SOLVING FOR HEAD 

 NO OUTPUT CONTROL FOR STRESS PERIOD    1   TIME STEP  989
 SOLVING FOR ZETA FOR LAYER     1 ZONE     2
 SOLVING FOR ZETA FOR LAYER     2 ZONE     2
 SOLVING FOR ZETA FOR LAYER     3 ZONE     2
 
 SOLVING FOR HEAD 

 NO OUTPUT CONTROL FOR STRESS PERIOD    1   TIME STEP  990
 SOLVING FOR ZETA FOR LAYER     1 ZONE     2
 SOLVING FOR ZETA FOR LAYER     2 ZONE     2
 SOLVING FOR ZETA FOR LAYER     3 ZONE     2
 
 SOLVING FOR HEAD 

 NO OUTPUT CONTROL FOR STRESS PERIOD    1   TIME STEP  991
 SOLVING FOR ZETA FOR LAYER     1 ZONE     2
 SOLVING FOR ZETA FOR LAYER     2 ZONE     2
 SOLVING FOR ZETA FOR LAYER     3 ZONE     2
 
 SOLVING FOR HEAD 

 NO OUTPUT CONTROL FOR STRESS PERIOD    1   TIME STEP  992
 SOLVING FOR ZETA FOR LAYER     1 ZONE     2
 SOLVING FOR ZETA FOR LAYER     2 ZONE     2
 SOLVING FOR ZETA FOR LAYER     3 ZONE     2
 
 SOLVING FOR HEAD 

 NO OUTPUT CONTROL FOR STRESS PERIOD    1   TIME STEP  993
 SOLVING FOR ZETA FOR LAYER     1 ZONE     2
 SOLVING FOR ZETA FOR LAYER     2 ZONE     2
 SOLVING FOR ZETA FOR LAYER     3 ZONE     2
 
 SOLVING FOR HEAD 

 NO OUTPUT CONTROL FOR STRESS PERIOD    1   TIME STEP  994
 SOLVING FOR ZETA FOR LAYER     1 ZONE     2
 SOLVING FOR ZETA FOR LAYER     2 ZONE     2
 SOLVING FOR ZETA FOR LAYER     3 ZONE     2
 
 SOLVING FOR HEAD 

 NO OUTPUT CONTROL FOR STRESS PERIOD    1   TIME STEP  995
 SOLVING FOR ZETA FOR LAYER     1 ZONE     2
 SOLVING FOR ZETA FOR LAYER     2 ZONE     2
 SOLVING FOR ZETA FOR LAYER     3 ZONE     2
 
 SOLVING FOR HEAD 

 NO OUTPUT CONTROL FOR STRESS PERIOD    1   TIME STEP  996
 SOLVING FOR ZETA FOR LAYER     1 ZONE     2
 SOLVING FOR ZETA FOR LAYER     2 ZONE     2
 SOLVING FOR ZETA FOR LAYER     3 ZONE     2
 
 SOLVING FOR HEAD 

 NO OUTPUT CONTROL FOR STRESS PERIOD    1   TIME STEP  997
 SOLVING FOR ZETA FOR LAYER     1 ZONE     2
 SOLVING FOR ZETA FOR LAYER     2 ZONE     2
 SOLVING FOR ZETA FOR LAYER     3 ZONE     2
 
 SOLVING FOR HEAD 

 NO OUTPUT CONTROL FOR STRESS PERIOD    1   TIME STEP  998
 SOLVING FOR ZETA FOR LAYER     1 ZONE     2
 SOLVING FOR ZETA FOR LAYER     2 ZONE     2
 SOLVING FOR ZETA FOR LAYER     3 ZONE     2
 
 SOLVING FOR HEAD 

 NO OUTPUT CONTROL FOR STRESS PERIOD    1   TIME STEP  999
 SOLVING FOR ZETA FOR LAYER     1 ZONE     2
 SOLVING FOR ZETA FOR LAYER     2 ZONE     2
 SOLVING FOR ZETA FOR LAYER     3 ZONE     2
 
 SOLVING FOR HEAD 

 OUTPUT CONTROL FOR STRESS PERIOD    1   TIME STEP 1000
    PRINT BUDGET
    SAVE HEAD FOR ALL LAYERS
 SOLVING FOR ZETA FOR LAYER     1 ZONE     2
 SOLVING FOR ZETA FOR LAYER     2 ZONE     2
 SOLVING FOR ZETA FOR LAYER     3 ZONE     2
 UBUDSV SAVING "      ZETASRF  1" ON UNIT 55 AT TIME STEP***, STRESS PERIOD    1


                      VOLUMETRIC SWI ZONE BUDGET FOR ENTIRE MODEL
                     AT END OF TIME STEP 1000 IN STRESS PERIOD   1
                                      ZONE     1
  -----------------------------------------------------------------------------------

        CUMULATIVE VOLUMES      L**3       RATES FOR THIS TIME STEP      L**3/T
        ------------------                 ------------------------

              IN:                                      IN:
              ---                                      ---
             BOUNDARIES =   418356384.0000            BOUNDARIES =        5730.3818
          CONSTANT HEAD =           0.0000         CONSTANT HEAD =           0.0000
            ZONE CHANGE =    12956429.0000           ZONE CHANGE =          54.7551
       ZONE CHG TIP/TOE =   217628944.0000      ZONE CHG TIP/TOE =        1085.1505
            ZONE MIXING =     1078061.8750           ZONE MIXING =           0.6112

               TOTAL IN =   650019840.0000              TOTAL IN =        6870.8984

             OUT:                                     OUT:
             ----                                     ----
             BOUNDARIES =   271506592.0000            BOUNDARIES =        4671.1377
          CONSTANT HEAD =           0.0000         CONSTANT HEAD =           0.0000
            ZONE CHANGE =   230584080.0000           ZONE CHANGE =        1127.5194
       ZONE CHG TIP/TOE =      342040.1875      ZONE CHG TIP/TOE =           2.4627
            ZONE MIXING =    61197252.0000           ZONE MIXING =         592.9014

              TOTAL OUT =   563630016.0000             TOTAL OUT =        6394.0215

               IN - OUT =    86389824.0000              IN - OUT =         476.8770

    PERCENT DISCREPANCY =          14.24     PERCENT DISCREPANCY =           7.19



                      VOLUMETRIC SWI ZONE BUDGET FOR ENTIRE MODEL
                     AT END OF TIME STEP 1000 IN STRESS PERIOD   1
                                      ZONE     2
  -----------------------------------------------------------------------------------

        CUMULATIVE VOLUMES      L**3       RATES FOR THIS TIME STEP      L**3/T
        ------------------                 ------------------------

              IN:                                      IN:
              ---                                      ---
             BOUNDARIES =    83171992.0000            BOUNDARIES =         856.9118
          CONSTANT HEAD =           0.0000         CONSTANT HEAD =           0.0000
            ZONE CHANGE =    12902491.0000           ZONE CHANGE =          42.4698
       ZONE CHG TIP/TOE =   141027296.0000      ZONE CHG TIP/TOE =         647.0640
            ZONE MIXING =    61197252.0000           ZONE MIXING =         592.9014

               TOTAL IN =   298299040.0000              TOTAL IN =        2139.3469

             OUT:                                     OUT:
             ----                                     ----
             BOUNDARIES =   230276672.0000            BOUNDARIES =        1919.6664
          CONSTANT HEAD =           0.0000         CONSTANT HEAD =           0.0000
            ZONE CHANGE =   153512480.0000           ZONE CHANGE =         695.5626
       ZONE CHG TIP/TOE =      131336.8906      ZONE CHG TIP/TOE =           0.8589
            ZONE MIXING =     1078061.8750           ZONE MIXING =           0.6112

              TOTAL OUT =   384998528.0000             TOTAL OUT =        2616.6992

               IN - OUT =   -86699488.0000              IN - OUT =        -477.3523

    PERCENT DISCREPANCY =         -25.38     PERCENT DISCREPANCY =         -20.07


 HEAD WILL BE SAVED ON UNIT   51 AT END OF TIME STEP 1000, STRESS PERIOD    1
1
  VOLUMETRIC BUDGET FOR ENTIRE MODEL AT END OF TIME STEP 1000, STRESS PERIOD   1
  ------------------------------------------------------------------------------

     CUMULATIVE VOLUMES      L**3       RATES FOR THIS TIME STEP      L**3/T
     ------------------                 ------------------------

           IN:                                      IN:
           ---                                      ---
             STORAGE =           0.0000               STORAGE =           0.0000
       CONSTANT HEAD =           0.0000         CONSTANT HEAD =           0.0000
          SWIADDTOCH =           0.0000            SWIADDTOCH =           0.0000
               WELLS =           0.0000                 WELLS =           0.0000
     HEAD DEP BOUNDS =    73326448.0000       HEAD DEP BOUNDS =         725.5312
            RECHARGE =   428199680.0000              RECHARGE =        5861.7627

            TOTAL IN =   501526144.0000              TOTAL IN =        6587.2939

          OUT:                                     OUT:
          ----                                     ----
             STORAGE =           0.0000               STORAGE =           0.0000
       CONSTANT HEAD =           0.0000         CONSTANT HEAD =           0.0000
          SWIADDTOCH =           0.0000            SWIADDTOCH =           0.0000
               WELLS =           0.0000                 WELLS =           0.0000
     HEAD DEP BOUNDS =   501783264.0000       HEAD DEP BOUNDS =        6590.8037
            RECHARGE =           0.0000              RECHARGE =           0.0000

           TOTAL OUT =   501783264.0000             TOTAL OUT =        6590.8037

            IN - OUT =     -257120.0000              IN - OUT =          -3.5098

 PERCENT DISCREPANCY =          -0.05     PERCENT DISCREPANCY =          -0.05






         TIME SUMMARY AT END OF TIME STEP 1000 IN STRESS PERIOD    1
                    SECONDS     MINUTES      HOURS       DAYS        YEARS
                    -----------------------------------------------------------
   TIME STEP LENGTH 6.31152E+06 1.05192E+05  1753.2      73.050     0.20000    
 STRESS PERIOD TIME 6.31154E+09 1.05192E+08 1.75320E+06  73050.      200.00    
         TOTAL TIME 6.31154E+09 1.05192E+08 1.75320E+06  73050.      200.00    
1
1
                            STRESS PERIOD NO.    2, LENGTH =   92.00000    
                            -----------------------------------------------

                              NUMBER OF TIME STEPS =    92

                               MULTIPLIER FOR DELT =     1.000

                            INITIAL TIME STEP SIZE =   1.000000    

 WELL NO.  LAYER   ROW   COL   STRESS RATE         
 --------------------------------------------------
      1      1     61     33      -7.270    
      2      1     59     38      -7.270    
      3      2     59     43      -7.270    
      4      2     57     43      -7.270    
      5      2     54     36      -7.270    
      6      2     52     38      -7.270    
      7      2     49     48       0.000    
      8      2     45     36       0.000    
      9      2     44     38      -7.270    
     10      1     43     40      -7.270    
     11      2     43     49      -7.270    
     12      2     40     39      -1.450    
     13      3     38     43      -14.85    
     14      1     37     38      -7.270    
     15      2     31     47      -7.270    
     16      2     27     41      -7.270    

     16 WELLS

 BOUND. NO. LAYER   ROW   COL     STAGE      CONDUCTANCE         
 ----------------------------------------------------------------
      1      1      1      1      0.3710          0.6804E+06
      2      1      1      2      0.3728          0.6804E+06
      3      1      1      3      0.3752          0.6804E+06
      4      1      1      4      0.3788          0.6804E+06
      5      1      1      5      0.3831          0.6804E+06
      6      1      1      6      0.3866          0.6804E+06
      7      1      1      7      0.3899          0.6804E+06
      8      1      1      8      0.3923          0.6804E+06
      9      1      1      9      0.3929          0.6804E+06
     10      1      1     10      0.3920          0.6804E+06
     11      1      1     11      0.3898          0.6804E+06
     12      1      1     12      0.3858          0.6804E+06
     13      1      1     13      0.3804          0.6804E+06
     14      1      1     14      0.3745          0.6804E+06
     15      1      1     15      0.3653          0.6804E+06
     16      1      1     16      0.3536          0.6804E+06
     17      1      1     17      0.3377          0.6804E+06
     18      1      1     18      0.3210          0.6804E+06
     19      1      1     19      0.3060          0.6804E+06
     20      1      1     20      0.2933          0.6804E+06
     21      1      1     21      0.2859          0.6804E+06
     22      1      1     22      0.2825          0.6804E+06
     23      1      1     23      0.2793          0.6804E+06
     24      1      1     24      0.2771          0.6804E+06
     25      1      1     25      0.2757          0.6804E+06
     26      1      1     26      0.2760          0.6804E+06
     27      1      1     27      0.2781          0.6804E+06
     28      1      1     28      0.2828          0.6804E+06
     29      1      1     29      0.2895          0.6804E+06
     30      1      1     30      0.2965          0.6804E+06
     31      1      1     31      0.3052          0.6804E+06
     32      1      1     32      0.3127          0.6804E+06
     33      1      1     33      0.3202          0.6804E+06
     34      1      1     34      0.3261          0.6804E+06
     35      1      1     35      0.3301          0.6804E+06
     36      1      1     36      0.3340          0.6804E+06
     37      1      1     37      0.3365          0.6804E+06
     38      1      1     38      0.3374          0.6804E+06
     39      1      1     39      0.3370          0.6804E+06
     40      1      1     40      0.3368          0.6804E+06
     41      1      1     41      0.3368          0.6804E+06
     42      1      1     42      0.3373          0.6804E+06
     43      1      1     43      0.3383          0.6804E+06
     44      1      1     44      0.3403          0.6804E+06
     45      1      1     45      0.3423          0.6804E+06
     46      1      1     46      0.3432          0.6804E+06
     47      1      1     47      0.3432          0.6804E+06
     48      1      1     48      0.3427          0.6804E+06
     49      1      1     49      0.3409          0.6804E+06
     50      1      1     50      0.3379          0.6804E+06
     51      1      1     51      0.3343          0.6804E+06
     52      1      1     52      0.3286          0.6804E+06
     53      1      1     53      0.3224          0.6804E+06
     54      1      1     54      0.3148          0.6804E+06
     55      1      1     55      0.3072          0.6804E+06
     56      1      1     56      0.3003          0.6804E+06
     57      1      1     57      0.2926          0.6804E+06
     58      1      1     58      0.2852          0.6804E+06
     59      1      1     59      0.2786          0.6804E+06
     60      1      1     60      0.2703          0.6804E+06
     61      1      1     61      0.2632          0.6804E+06
     62      1      1     62      0.2554          0.6804E+06
     63      1      1     63      0.2480          0.6804E+06
     64      1      1     64      0.2423          0.6804E+06
     65      1      1     65      0.2365          0.6804E+06
     66      1      1     66      0.2312          0.6804E+06
     67      1      1     67      0.2269          0.6804E+06
     68      1      1     68      0.2222          0.6804E+06
     69      1      1     69      0.2181          0.6804E+06
     70      1      1     70      0.2135          0.6804E+06
     71      1      1     71      0.2088          0.6804E+06
     72      1      1     72      0.2045          0.6804E+06
     73      1      1     73      0.1995          0.6804E+06
     74      1      1     74      0.1936          0.6804E+06
     75      1      1     75      0.1881          0.6804E+06
     76      1      1     76      0.1818          0.6804E+06
     77      1      1     77      0.1766          0.6804E+06
     78      1      1     78      0.1703          0.6804E+06
     79      1      1     79      0.1635          0.6804E+06
     80      1      1     80      0.1576          0.6804E+06
     81      1      1     81      0.1510          0.6804E+06
     82      1      1     82      0.1439          0.6804E+06
     83      1      1     83      0.1376          0.6804E+06
     84      1      1     84      0.1302          0.6804E+06
     85      1      1     85      0.1231          0.6804E+06
     86      1      1     86      0.1147          0.6804E+06
     87      1      1     87      0.1067          0.6804E+06
     88      1      1     88      0.9976E-01      0.6804E+06
     89      1      1     89      0.9168E-01      0.6804E+06
     90      1      1     90      0.8364E-01      0.6804E+06
     91      1      1     91      0.7626E-01      0.6804E+06
     92      1      1     92      0.6793E-01      0.6804E+06
     93      1      1     93      0.6125E-01      0.6804E+06
     94      1      1     94      0.5478E-01      0.6804E+06
     95      1      1     95      0.4816E-01      0.6804E+06
     96      1      1     96      0.4179E-01      0.6804E+06
     97      1      1     97      0.3279E-01      0.6804E+06
     98      1      1     98      0.2161E-01      0.6804E+06
     99      1      1     99      0.7204E-02      0.6804E+06
    100      1      1    100       0.000          0.6804E+06
    101      1      2      1      0.3913          0.6804E+06
    102      1      2      2      0.3922          0.6804E+06
    103      1      2      3      0.3938          0.6804E+06
    104      1      2      4      0.3965          0.6804E+06
    105      1      2      5      0.3999          0.6804E+06
    106      1      2      6      0.4025          0.6804E+06
    107      1      2      7      0.4047          0.6804E+06
    108      1      2      8      0.4059          0.6804E+06
    109      1      2      9      0.4053          0.6804E+06
    110      1      2     10      0.4027          0.6804E+06
    111      1      2     11      0.3992          0.6804E+06
    112      1      2     12      0.3938          0.6804E+06
    113      1      2     13      0.3871          0.6804E+06
    114      1      2     14      0.3803          0.6804E+06
    115      1      2     15      0.3704          0.6804E+06
    116      1      2     16      0.3595          0.6804E+06
    117      1      2     17      0.3453          0.6804E+06
    118      1      2     18      0.3303          0.6804E+06
    119      1      2     19      0.3173          0.6804E+06
    120      1      2     20      0.3050          0.6804E+06
    121      1      2     21      0.2960          0.6804E+06
    122      1      2     22      0.2899          0.6804E+06
    123      1      2     23      0.2837          0.6804E+06
    124      1      2     24      0.2789          0.6804E+06
    125      1      2     25      0.2743          0.6804E+06
    126      1      2     26      0.2719          0.6804E+06
    127      1      2     27      0.2726          0.6804E+06
    128      1      2     28      0.2766          0.6804E+06
    129      1      2     29      0.2834          0.6804E+06
    130      1      2     30      0.2910          0.6804E+06
    131      1      2     31      0.3009          0.6804E+06
    132      1      2     32      0.3095          0.6804E+06
    133      1      2     33      0.3174          0.6804E+06
    134      1      2     34      0.3222          0.6804E+06
    135      1      2     35      0.3237          0.6804E+06
    136      1      2     36      0.3243          0.6804E+06
    137      1      2     37      0.3245          0.6804E+06
    138      1      2     38      0.3251          0.6804E+06
    139      1      2     39      0.3265          0.6804E+06
    140      1      2     40      0.3272          0.6804E+06
    141      1      2     41      0.3274          0.6804E+06
    142      1      2     42      0.3280          0.6804E+06
    143      1      2     43      0.3294          0.6804E+06
    144      1      2     44      0.3322          0.6804E+06
    145      1      2     45      0.3351          0.6804E+06
    146      1      2     46      0.3370          0.6804E+06
    147      1      2     47      0.3380          0.6804E+06
    148      1      2     48      0.3379          0.6804E+06
    149      1      2     49      0.3359          0.6804E+06
    150      1      2     50      0.3320          0.6804E+06
    151      1      2     51      0.3275          0.6804E+06
    152      1      2     52      0.3212          0.6804E+06
    153      1      2     53      0.3148          0.6804E+06
    154      1      2     54      0.3071          0.6804E+06
    155      1      2     55      0.2993          0.6804E+06
    156      1      2     56      0.2923          0.6804E+06
    157      1      2     57      0.2846          0.6804E+06
    158      1      2     58      0.2772          0.6804E+06
    159      1      2     59      0.2704          0.6804E+06
    160      1      2     60      0.2623          0.6804E+06
    161      1      2     61      0.2555          0.6804E+06
    162      1      2     62      0.2482          0.6804E+06
    163      1      2     63      0.2412          0.6804E+06
    164      1      2     64      0.2355          0.6804E+06
    165      1      2     65      0.2296          0.6804E+06
    166      1      2     66      0.2239          0.6804E+06
    167      1      2     67      0.2193          0.6804E+06
    168      1      2     68      0.2143          0.6804E+06
    169      1      2     69      0.2102          0.6804E+06
    170      1      2     70      0.2056          0.6804E+06
    171      1      2     71      0.2012          0.6804E+06
    172      1      2     72      0.1974          0.6804E+06
    173      1      2     73      0.1926          0.6804E+06
    174      1      2     74      0.1874          0.6804E+06
    175      1      2     75      0.1824          0.6804E+06
    176      1      2     76      0.1762          0.6804E+06
    177      1      2     77      0.1705          0.6804E+06
    178      1      2     78      0.1635          0.6804E+06
    179      1      2     79      0.1561          0.6804E+06
    180      1      2     80      0.1499          0.6804E+06
    181      1      2     81      0.1434          0.6804E+06
    182      1      2     82      0.1360          0.6804E+06
    183      1      2     83      0.1293          0.6804E+06
    184      1      2     84      0.1214          0.6804E+06
    185      1      2     85      0.1141          0.6804E+06
    186      1      2     86      0.1061          0.6804E+06
    187      1      2     87      0.9897E-01      0.6804E+06
    188      1      2     88      0.9295E-01      0.6804E+06
    189      1      2     89      0.8604E-01      0.6804E+06
    190      1      2     90      0.7935E-01      0.6804E+06
    191      1      2     91      0.7276E-01      0.6804E+06
    192      1      2     92      0.6489E-01      0.6804E+06
    193      1      2     93      0.5824E-01      0.6804E+06
    194      1      2     94      0.5107E-01      0.6804E+06
    195      1      2     95      0.4232E-01      0.6804E+06
    196      1      2     96      0.3331E-01      0.6804E+06
    197      1      2     97      0.2064E-01      0.6804E+06
    198      1      2     98      0.8544E-02      0.6804E+06
    199      1      2     99       0.000          0.6804E+06
    200      1      2    100     -0.5911E-01      0.6804E+06
    201      1      3      1      0.4115          0.6804E+06
    202      1      3      2      0.4113          0.6804E+06
    203      1      3      3      0.4120          0.6804E+06
    204      1      3      4      0.4138          0.6804E+06
    205      1      3      5      0.4163          0.6804E+06
    206      1      3      6      0.4181          0.6804E+06
    207      1      3      7      0.4195          0.6804E+06
    208      1      3      8      0.4196          0.6804E+06
    209      1      3      9      0.4177          0.6804E+06
    210      1      3     10      0.4133          0.6804E+06
    211      1      3     11      0.4082          0.6804E+06
    212      1      3     12      0.4012          0.6804E+06
    213      1      3     13      0.3932          0.6804E+06
    214      1      3     14      0.3854          0.6804E+06
    215      1      3     15      0.3752          0.6804E+06
    216      1      3     16      0.3652          0.6804E+06
    217      1      3     17      0.3530          0.6804E+06
    218      1      3     18      0.3404          0.6804E+06
    219      1      3     19      0.3296          0.6804E+06
    220      1      3     20      0.3182          0.6804E+06
    221      1      3     21      0.3077          0.6804E+06
    222      1      3     22      0.2987          0.6804E+06
    223      1      3     23      0.2890          0.6804E+06
    224      1      3     24      0.2810          0.6804E+06
    225      1      3     25      0.2728          0.6804E+06
    226      1      3     26      0.2669          0.6804E+06
    227      1      3     27      0.2660          0.6804E+06
    228      1      3     28      0.2689          0.6804E+06
    229      1      3     29      0.2754          0.6804E+06
    230      1      3     30      0.2834          0.6804E+06
    231      1      3     31      0.2948          0.6804E+06
    232      1      3     32      0.3052          0.6804E+06
    233      1      3     33      0.3141          0.6804E+06
    234      1      3     34      0.3172          0.6804E+06
    235      1      3     35      0.3143          0.6804E+06
    236      1      3     36      0.3098          0.6804E+06
    237      1      3     37      0.3063          0.6804E+06
    238      1      3     38      0.3061          0.6804E+06
    239      1      3     39      0.3091          0.6804E+06
    240      1      3     40      0.3112          0.6804E+06
    241      1      3     41      0.3127          0.6804E+06
    242      1      3     42      0.3144          0.6804E+06
    243      1      3     43      0.3167          0.6804E+06
    244      1      3     44      0.3204          0.6804E+06
    245      1      3     45      0.3245          0.6804E+06
    246      1      3     46      0.3277          0.6804E+06
    247      1      3     47      0.3305          0.6804E+06
    248      1      3     48      0.3315          0.6804E+06
    249      1      3     49      0.3295          0.6804E+06
    250      1      3     50      0.3247          0.6804E+06
    251      1      3     51      0.3192          0.6804E+06
    252      1      3     52      0.3122          0.6804E+06
    253      1      3     53      0.3055          0.6804E+06
    254      1      3     54      0.2977          0.6804E+06
    255      1      3     55      0.2900          0.6804E+06
    256      1      3     56      0.2831          0.6804E+06
    257      1      3     57      0.2759          0.6804E+06
    258      1      3     58      0.2683          0.6804E+06
    259      1      3     59      0.2612          0.6804E+06
    260      1      3     60      0.2535          0.6804E+06
    261      1      3     61      0.2472          0.6804E+06
    262      1      3     62      0.2403          0.6804E+06
    263      1      3     63      0.2336          0.6804E+06
    264      1      3     64      0.2280          0.6804E+06
    265      1      3     65      0.2220          0.6804E+06
    266      1      3     66      0.2162          0.6804E+06
    267      1      3     67      0.2112          0.6804E+06
    268      1      3     68      0.2060          0.6804E+06
    269      1      3     69      0.2019          0.6804E+06
    270      1      3     70      0.1975          0.6804E+06
    271      1      3     71      0.1934          0.6804E+06
    272      1      3     72      0.1897          0.6804E+06
    273      1      3     73      0.1853          0.6804E+06
    274      1      3     74      0.1810          0.6804E+06
    275      1      3     75      0.1767          0.6804E+06
    276      1      3     76      0.1706          0.6804E+06
    277      1      3     77      0.1643          0.6804E+06
    278      1      3     78      0.1565          0.6804E+06
    279      1      3     79      0.1488          0.6804E+06
    280      1      3     80      0.1425          0.6804E+06
    281      1      3     81      0.1357          0.6804E+06
    282      1      3     82      0.1279          0.6804E+06
    283      1      3     83      0.1208          0.6804E+06
    284      1      3     84      0.1125          0.6804E+06
    285      1      3     85      0.1051          0.6804E+06
    286      1      3     86      0.9746E-01      0.6804E+06
    287      1      3     87      0.9132E-01      0.6804E+06
    288      1      3     88      0.8641E-01      0.6804E+06
    289      1      3     89      0.8056E-01      0.6804E+06
    290      1      3     90      0.7421E-01      0.6804E+06
    291      1      3     91      0.6800E-01      0.6804E+06
    292      1      3     92      0.6032E-01      0.6804E+06
    293      1      3     93      0.5337E-01      0.6804E+06
    294      1      3     94      0.4518E-01      0.6804E+06
    295      1      3     95      0.3411E-01      0.6804E+06
    296      1      3     96      0.2197E-01      0.6804E+06
    297      1      3     97      0.8253E-02      0.6804E+06
    298      1      3     98       0.000          0.6804E+06
    299      1      3     99     -0.5216E-01      0.6804E+06
    300      1      3    100     -0.8953E-01      0.6804E+06
    301      1      4      1      0.4282          0.6804E+06
    302      1      4      2      0.4272          0.6804E+06
    303      1      4      3      0.4272          0.6804E+06
    304      1      4      4      0.4282          0.6804E+06
    305      1      4      5      0.4300          0.6804E+06
    306      1      4      6      0.4313          0.6804E+06
    307      1      4      7      0.4321          0.6804E+06
    308      1      4      8      0.4313          0.6804E+06
    309      1      4      9      0.4281          0.6804E+06
    310      1      4     10      0.4220          0.6804E+06
    311      1      4     11      0.4155          0.6804E+06
    312      1      4     12      0.4071          0.6804E+06
    313      1      4     13      0.3978          0.6804E+06
    314      1      4     14      0.3892          0.6804E+06
    315      1      4     15      0.3790          0.6804E+06
    316      1      4     16      0.3698          0.6804E+06
    317      1      4     17      0.3590          0.6804E+06
    318      1      4     18      0.3485          0.6804E+06
    319      1      4     19      0.3396          0.6804E+06
    320      1      4     20      0.3291          0.6804E+06
    321      1      4     21      0.3177          0.6804E+06
    322      1      4     22      0.3063          0.6804E+06
    323      1      4     23      0.2937          0.6804E+06
    324      1      4     24      0.2832          0.6804E+06
    325      1      4     25      0.2722          0.6804E+06
    326      1      4     26      0.2635          0.6804E+06
    327      1      4     27      0.2601          0.6804E+06
    328      1      4     28      0.2609          0.6804E+06
    329      1      4     29      0.2663          0.6804E+06
    330      1      4     30      0.2744          0.6804E+06
    331      1      4     31      0.2869          0.6804E+06
    332      1      4     32      0.2993          0.6804E+06
    333      1      4     33      0.3096          0.6804E+06
    334      1      4     34      0.3110          0.6804E+06
    335      1      4     35      0.3032          0.6804E+06
    336      1      4     36      0.2932          0.6804E+06
    337      1      4     37      0.2859          0.6804E+06
    338      1      4     38      0.2843          0.6804E+06
    339      1      4     39      0.2885          0.6804E+06
    340      1      4     40      0.2922          0.6804E+06
    341      1      4     41      0.2958          0.6804E+06
    342      1      4     42      0.2994          0.6804E+06
    343      1      4     43      0.3028          0.6804E+06
    344      1      4     44      0.3075          0.6804E+06
    345      1      4     45      0.3127          0.6804E+06
    346      1      4     46      0.3173          0.6804E+06
    347      1      4     47      0.3220          0.6804E+06
    348      1      4     48      0.3246          0.6804E+06
    349      1      4     49      0.3225          0.6804E+06
    350      1      4     50      0.3165          0.6804E+06
    351      1      4     51      0.3102          0.6804E+06
    352      1      4     52      0.3029          0.6804E+06
    353      1      4     53      0.2960          0.6804E+06
    354      1      4     54      0.2882          0.6804E+06
    355      1      4     55      0.2807          0.6804E+06
    356      1      4     56      0.2739          0.6804E+06
    357      1      4     57      0.2670          0.6804E+06
    358      1      4     58      0.2597          0.6804E+06
    359      1      4     59      0.2527          0.6804E+06
    360      1      4     60      0.2454          0.6804E+06
    361      1      4     61      0.2396          0.6804E+06
    362      1      4     62      0.2330          0.6804E+06
    363      1      4     63      0.2264          0.6804E+06
    364      1      4     64      0.2209          0.6804E+06
    365      1      4     65      0.2149          0.6804E+06
    366      1      4     66      0.2088          0.6804E+06
    367      1      4     67      0.2037          0.6804E+06
    368      1      4     68      0.1984          0.6804E+06
    369      1      4     69      0.1942          0.6804E+06
    370      1      4     70      0.1899          0.6804E+06
    371      1      4     71      0.1859          0.6804E+06
    372      1      4     72      0.1821          0.6804E+06
    373      1      4     73      0.1782          0.6804E+06
    374      1      4     74      0.1748          0.6804E+06
    375      1      4     75      0.1712          0.6804E+06
    376      1      4     76      0.1655          0.6804E+06
    377      1      4     77      0.1584          0.6804E+06
    378      1      4     78      0.1499          0.6804E+06
    379      1      4     79      0.1419          0.6804E+06
    380      1      4     80      0.1356          0.6804E+06
    381      1      4     81      0.1282          0.6804E+06
    382      1      4     82      0.1203          0.6804E+06
    383      1      4     83      0.1132          0.6804E+06
    384      1      4     84      0.1050          0.6804E+06
    385      1      4     85      0.9767E-01      0.6804E+06
    386      1      4     86      0.9029E-01      0.6804E+06
    387      1      4     87      0.8503E-01      0.6804E+06
    388      1      4     88      0.8086E-01      0.6804E+06
    389      1      4     89      0.7507E-01      0.6804E+06
    390      1      4     90      0.6880E-01      0.6804E+06
    391      1      4     91      0.6320E-01      0.6804E+06
    392      1      4     92      0.5551E-01      0.6804E+06
    393      1      4     93      0.4725E-01      0.6804E+06
    394      1      4     94      0.3691E-01      0.6804E+06
    395      1      4     95      0.2342E-01      0.6804E+06
    396      1      4     96      0.1036E-01      0.6804E+06
    397      1      4     97       0.000          0.6804E+06
    398      1      4     98     -0.4253E-01      0.6804E+06
    399      1      4     99     -0.8103E-01      0.6804E+06
    400      1      4    100     -0.1109          0.6804E+06
    401      1      5      1      0.4453          0.6804E+06
    402      1      5      2      0.4436          0.6804E+06
    403      1      5      3      0.4430          0.6804E+06
    404      1      5      4      0.4434          0.6804E+06
    405      1      5      5      0.4446          0.6804E+06
    406      1      5      6      0.4452          0.6804E+06
    407      1      5      7      0.4452          0.6804E+06
    408      1      5      8      0.4432          0.6804E+06
    409      1      5      9      0.4387          0.6804E+06
    410      1      5     10      0.4308          0.6804E+06
    411      1      5     11      0.4229          0.6804E+06
    412      1      5     12      0.4129          0.6804E+06
    413      1      5     13      0.4023          0.6804E+06
    414      1      5     14      0.3928          0.6804E+06
    415      1      5     15      0.3826          0.6804E+06
    416      1      5     16      0.3740          0.6804E+06
    417      1      5     17      0.3645          0.6804E+06
    418      1      5     18      0.3556          0.6804E+06
    419      1      5     19      0.3482          0.6804E+06
    420      1      5     20      0.3386          0.6804E+06
    421      1      5     21      0.3264          0.6804E+06
    422      1      5     22      0.3132          0.6804E+06
    423      1      5     23      0.2982          0.6804E+06
    424      1      5     24      0.2856          0.6804E+06
    425      1      5     25      0.2722          0.6804E+06
    426      1      5     26      0.2606          0.6804E+06
    427      1      5     27      0.2535          0.6804E+06
    428      1      5     28      0.2501          0.6804E+06
    429      1      5     29      0.2527          0.6804E+06
    430      1      5     30      0.2603          0.6804E+06
    431      1      5     31      0.2733          0.6804E+06
    432      1      5     32      0.2867          0.6804E+06
    433      1      5     33      0.2980          0.6804E+06
    434      1      5     34      0.2977          0.6804E+06
    435      1      5     35      0.2846          0.6804E+06
    436      1      5     36      0.2692          0.6804E+06
    437      1      5     37      0.2578          0.6804E+06
    438      1      5     38      0.2544          0.6804E+06
    439      1      5     39      0.2603          0.6804E+06
    440      1      5     40      0.2662          0.6804E+06
    441      1      5     41      0.2728          0.6804E+06
    442      1      5     42      0.2792          0.6804E+06
    443      1      5     43      0.2844          0.6804E+06
    444      1      5     44      0.2903          0.6804E+06
    445      1      5     45      0.2966          0.6804E+06
    446      1      5     46      0.3023          0.6804E+06
    447      1      5     47      0.3086          0.6804E+06
    448      1      5     48      0.3128          0.6804E+06
    449      1      5     49      0.3109          0.6804E+06
    450      1      5     50      0.3040          0.6804E+06
    451      1      5     51      0.2975          0.6804E+06
    452      1      5     52      0.2902          0.6804E+06
    453      1      5     53      0.2835          0.6804E+06
    454      1      5     54      0.2760          0.6804E+06
    455      1      5     55      0.2686          0.6804E+06
    456      1      5     56      0.2622          0.6804E+06
    457      1      5     57      0.2559          0.6804E+06
    458      1      5     58      0.2489          0.6804E+06
    459      1      5     59      0.2421          0.6804E+06
    460      1      5     60      0.2355          0.6804E+06
    461      1      5     61      0.2301          0.6804E+06
    462      1      5     62      0.2240          0.6804E+06
    463      1      5     63      0.2177          0.6804E+06
    464      1      5     64      0.2123          0.6804E+06
    465      1      5     65      0.2062          0.6804E+06
    466      1      5     66      0.1997          0.6804E+06
    467      1      5     67      0.1943          0.6804E+06
    468      1      5     68      0.1890          0.6804E+06
    469      1      5     69      0.1849          0.6804E+06
    470      1      5     70      0.1802          0.6804E+06
    471      1      5     71      0.1760          0.6804E+06
    472      1      5     72      0.1725          0.6804E+06
    473      1      5     73      0.1692          0.6804E+06
    474      1      5     74      0.1664          0.6804E+06
    475      1      5     75      0.1635          0.6804E+06
    476      1      5     76      0.1581          0.6804E+06
    477      1      5     77      0.1502          0.6804E+06
    478      1      5     78      0.1412          0.6804E+06
    479      1      5     79      0.1330          0.6804E+06
    480      1      5     80      0.1265          0.6804E+06
    481      1      5     81      0.1188          0.6804E+06
    482      1      5     82      0.1113          0.6804E+06
    483      1      5     83      0.1048          0.6804E+06
    484      1      5     84      0.9716E-01      0.6804E+06
    485      1      5     85      0.9037E-01      0.6804E+06
    486      1      5     86      0.8347E-01      0.6804E+06
    487      1      5     87      0.7887E-01      0.6804E+06
    488      1      5     88      0.7524E-01      0.6804E+06
    489      1      5     89      0.6925E-01      0.6804E+06
    490      1      5     90      0.6233E-01      0.6804E+06
    491      1      5     91      0.5570E-01      0.6804E+06
    492      1      5     92      0.4648E-01      0.6804E+06
    493      1      5     93      0.3665E-01      0.6804E+06
    494      1      5     94      0.2376E-01      0.6804E+06
    495      1      5     95      0.8694E-02      0.6804E+06
    496      1      5     96       0.000          0.6804E+06
    497      1      5     97     -0.4517E-01      0.6804E+06
    498      1      5     98     -0.7794E-01      0.6804E+06
    499      1      5     99     -0.1048          0.6804E+06
    500      1      5    100     -0.1273          0.6804E+06
    501      1      6      1      0.4592          0.6804E+06
    502      1      6      2      0.4575          0.6804E+06
    503      1      6      3      0.4568          0.6804E+06
    504      1      6      4      0.4569          0.6804E+06
    505      1      6      5      0.4576          0.6804E+06
    506      1      6      6      0.4576          0.6804E+06
    507      1      6      7      0.4564          0.6804E+06
    508      1      6      8      0.4529          0.6804E+06
    509      1      6      9      0.4471          0.6804E+06
    510      1      6     10      0.4379          0.6804E+06
    511      1      6     11      0.4288          0.6804E+06
    512      1      6     12      0.4175          0.6804E+06
    513      1      6     13      0.4057          0.6804E+06
    514      1      6     14      0.3954          0.6804E+06
    515      1      6     15      0.3848          0.6804E+06
    516      1      6     16      0.3764          0.6804E+06
    517      1      6     17      0.3675          0.6804E+06
    518      1      6     18      0.3596          0.6804E+06
    519      1      6     19      0.3529          0.6804E+06
    520      1      6     20      0.3437          0.6804E+06
    521      1      6     21      0.3313          0.6804E+06
    522      1      6     22      0.3174          0.6804E+06
    523      1      6     23      0.3012          0.6804E+06
    524      1      6     24      0.2873          0.6804E+06
    525      1      6     25      0.2721          0.6804E+06
    526      1      6     26      0.2579          0.6804E+06
    527      1      6     27      0.2468          0.6804E+06
    528      1      6     28      0.2375          0.6804E+06
    529      1      6     29      0.2358          0.6804E+06
    530      1      6     30      0.2433          0.6804E+06
    531      1      6     31      0.2552          0.6804E+06
    532      1      6     32      0.2661          0.6804E+06
    533      1      6     33      0.2736          0.6804E+06
    534      1      6     34      0.2703          0.6804E+06
    535      1      6     35      0.2579          0.6804E+06
    536      1      6     36      0.2425          0.6804E+06
    537      1      6     37      0.2308          0.6804E+06
    538      1      6     38      0.2276          0.6804E+06
    539      1      6     39      0.2336          0.6804E+06
    540      1      6     40      0.2408          0.6804E+06
    541      1      6     41      0.2494          0.6804E+06
    542      1      6     42      0.2578          0.6804E+06
    543      1      6     43      0.2642          0.6804E+06
    544      1      6     44      0.2710          0.6804E+06
    545      1      6     45      0.2777          0.6804E+06
    546      1      6     46      0.2835          0.6804E+06
    547      1      6     47      0.2896          0.6804E+06
    548      1      6     48      0.2936          0.6804E+06
    549      1      6     49      0.2927          0.6804E+06
    550      1      6     50      0.2871          0.6804E+06
    551      1      6     51      0.2816          0.6804E+06
    552      1      6     52      0.2751          0.6804E+06
    553      1      6     53      0.2692          0.6804E+06
    554      1      6     54      0.2623          0.6804E+06
    555      1      6     55      0.2554          0.6804E+06
    556      1      6     56      0.2499          0.6804E+06
    557      1      6     57      0.2436          0.6804E+06
    558      1      6     58      0.2368          0.6804E+06
    559      1      6     59      0.2306          0.6804E+06
    560      1      6     60      0.2248          0.6804E+06
    561      1      6     61      0.2198          0.6804E+06
    562      1      6     62      0.2142          0.6804E+06
    563      1      6     63      0.2083          0.6804E+06
    564      1      6     64      0.2030          0.6804E+06
    565      1      6     65      0.1966          0.6804E+06
    566      1      6     66      0.1899          0.6804E+06
    567      1      6     67      0.1844          0.6804E+06
    568      1      6     68      0.1791          0.6804E+06
    569      1      6     69      0.1746          0.6804E+06
    570      1      6     70      0.1696          0.6804E+06
    571      1      6     71      0.1653          0.6804E+06
    572      1      6     72      0.1621          0.6804E+06
    573      1      6     73      0.1586          0.6804E+06
    574      1      6     74      0.1553          0.6804E+06
    575      1      6     75      0.1518          0.6804E+06
    576      1      6     76      0.1462          0.6804E+06
    577      1      6     77      0.1390          0.6804E+06
    578      1      6     78      0.1307          0.6804E+06
    579      1      6     79      0.1224          0.6804E+06
    580      1      6     80      0.1156          0.6804E+06
    581      1      6     81      0.1086          0.6804E+06
    582      1      6     82      0.1021          0.6804E+06
    583      1      6     83      0.9642E-01      0.6804E+06
    584      1      6     84      0.8988E-01      0.6804E+06
    585      1      6     85      0.8392E-01      0.6804E+06
    586      1      6     86      0.7780E-01      0.6804E+06
    587      1      6     87      0.7317E-01      0.6804E+06
    588      1      6     88      0.6907E-01      0.6804E+06
    589      1      6     89      0.6223E-01      0.6804E+06
    590      1      6     90      0.5410E-01      0.6804E+06
    591      1      6     91      0.4560E-01      0.6804E+06
    592      1      6     92      0.3384E-01      0.6804E+06
    593      1      6     93      0.2190E-01      0.6804E+06
    594      1      6     94      0.7307E-02      0.6804E+06
    595      1      6     95       0.000          0.6804E+06
    596      1      6     96     -0.4403E-01      0.6804E+06
    597      1      6     97     -0.7934E-01      0.6804E+06
    598      1      6     98     -0.1005          0.6804E+06
    599      1      6     99     -0.1220          0.6804E+06
    600      1      6    100     -0.1407          0.6804E+06
    601      1      7      1      0.4692          0.6804E+06
    602      1      7      2      0.4678          0.6804E+06
    603      1      7      3      0.4673          0.6804E+06
    604      1      7      4      0.4673          0.6804E+06
    605      1      7      5      0.4678          0.6804E+06
    606      1      7      6      0.4675          0.6804E+06
    607      1      7      7      0.4654          0.6804E+06
    608      1      7      8      0.4607          0.6804E+06
    609      1      7      9      0.4535          0.6804E+06
    610      1      7     10      0.4428          0.6804E+06
    611      1      7     11      0.4324          0.6804E+06
    612      1      7     12      0.4200          0.6804E+06
    613      1      7     13      0.4075          0.6804E+06
    614      1      7     14      0.3967          0.6804E+06
    615      1      7     15      0.3853          0.6804E+06
    616      1      7     16      0.3763          0.6804E+06
    617      1      7     17      0.3674          0.6804E+06
    618      1      7     18      0.3599          0.6804E+06
    619      1      7     19      0.3536          0.6804E+06
    620      1      7     20      0.3446          0.6804E+06
    621      1      7     21      0.3322          0.6804E+06
    622      1      7     22      0.3185          0.6804E+06
    623      1      7     23      0.3020          0.6804E+06
    624      1      7     24      0.2876          0.6804E+06
    625      1      7     25      0.2716          0.6804E+06
    626      1      7     26      0.2556          0.6804E+06
    627      1      7     27      0.2417          0.6804E+06
    628      1      7     28      0.2279          0.6804E+06
    629      1      7     29      0.2224          0.6804E+06
    630      1      7     30      0.2290          0.6804E+06
    631      1      7     31      0.2387          0.6804E+06
    632      1      7     32      0.2458          0.6804E+06
    633      1      7     33      0.2490          0.6804E+06
    634      1      7     34      0.2435          0.6804E+06
    635      1      7     35      0.2324          0.6804E+06
    636      1      7     36      0.2182          0.6804E+06
    637      1      7     37      0.2076          0.6804E+06
    638      1      7     38      0.2055          0.6804E+06
    639      1      7     39      0.2120          0.6804E+06
    640      1      7     40      0.2202          0.6804E+06
    641      1      7     41      0.2302          0.6804E+06
    642      1      7     42      0.2396          0.6804E+06
    643      1      7     43      0.2465          0.6804E+06
    644      1      7     44      0.2532          0.6804E+06
    645      1      7     45      0.2596          0.6804E+06
    646      1      7     46      0.2646          0.6804E+06
    647      1      7     47      0.2694          0.6804E+06
    648      1      7     48      0.2724          0.6804E+06
    649      1      7     49      0.2725          0.6804E+06
    650      1      7     50      0.2693          0.6804E+06
    651      1      7     51      0.2655          0.6804E+06
    652      1      7     52      0.2603          0.6804E+06
    653      1      7     53      0.2552          0.6804E+06
    654      1      7     54      0.2492          0.6804E+06
    655      1      7     55      0.2433          0.6804E+06
    656      1      7     56      0.2387          0.6804E+06
    657      1      7     57      0.2320          0.6804E+06
    658      1      7     58      0.2252          0.6804E+06
    659      1      7     59      0.2201          0.6804E+06
    660      1      7     60      0.2147          0.6804E+06
    661      1      7     61      0.2102          0.6804E+06
    662      1      7     62      0.2050          0.6804E+06
    663      1      7     63      0.1995          0.6804E+06
    664      1      7     64      0.1944          0.6804E+06
    665      1      7     65      0.1876          0.6804E+06
    666      1      7     66      0.1807          0.6804E+06
    667      1      7     67      0.1752          0.6804E+06
    668      1      7     68      0.1696          0.6804E+06
    669      1      7     69      0.1648          0.6804E+06
    670      1      7     70      0.1599          0.6804E+06
    671      1      7     71      0.1556          0.6804E+06
    672      1      7     72      0.1519          0.6804E+06
    673      1      7     73      0.1477          0.6804E+06
    674      1      7     74      0.1436          0.6804E+06
    675      1      7     75      0.1396          0.6804E+06
    676      1      7     76      0.1340          0.6804E+06
    677      1      7     77      0.1278          0.6804E+06
    678      1      7     78      0.1201          0.6804E+06
    679      1      7     79      0.1119          0.6804E+06
    680      1      7     80      0.1052          0.6804E+06
    681      1      7     81      0.9924E-01      0.6804E+06
    682      1      7     82      0.9380E-01      0.6804E+06
    683      1      7     83      0.8900E-01      0.6804E+06
    684      1      7     84      0.8319E-01      0.6804E+06
    685      1      7     85      0.7770E-01      0.6804E+06
    686      1      7     86      0.7259E-01      0.6804E+06
    687      1      7     87      0.6745E-01      0.6804E+06
    688      1      7     88      0.6189E-01      0.6804E+06
    689      1      7     89      0.5383E-01      0.6804E+06
    690      1      7     90      0.4454E-01      0.6804E+06
    691      1      7     91      0.3432E-01      0.6804E+06
    692      1      7     92      0.1993E-01      0.6804E+06
    693      1      7     93      0.6895E-02      0.6804E+06
    694      1      7     94       0.000          0.6804E+06
    695      1      7     95       0.000          0.6804E+06
    696      1      7     96     -0.7501E-01      0.6804E+06
    697      1      7     97     -0.9975E-01      0.6804E+06
    698      1      7     98     -0.1192          0.6804E+06
    699      1      7     99     -0.1401          0.6804E+06
    700      1      7    100     -0.1727          0.6804E+06
    701      1      8      1      0.4782          0.6804E+06
    702      1      8      2      0.4776          0.6804E+06
    703      1      8      3      0.4773          0.6804E+06
    704      1      8      4      0.4775          0.6804E+06
    705      1      8      5      0.4779          0.6804E+06
    706      1      8      6      0.4775          0.6804E+06
    707      1      8      7      0.4750          0.6804E+06
    708      1      8      8      0.4691          0.6804E+06
    709      1      8      9      0.4599          0.6804E+06
    710      1      8     10      0.4463          0.6804E+06
    711      1      8     11      0.4339          0.6804E+06
    712      1      8     12      0.4201          0.6804E+06
    713      1      8     13      0.4072          0.6804E+06
    714      1      8     14      0.3957          0.6804E+06
    715      1      8     15      0.3828          0.6804E+06
    716      1      8     16      0.3726          0.6804E+06
    717      1      8     17      0.3634          0.6804E+06
    718      1      8     18      0.3565          0.6804E+06
    719      1      8     19      0.3515          0.6804E+06
    720      1      8     20      0.3437          0.6804E+06
    721      1      8     21      0.3314          0.6804E+06
    722      1      8     22      0.3171          0.6804E+06
    723      1      8     23      0.3002          0.6804E+06
    724      1      8     24      0.2859          0.6804E+06
    725      1      8     25      0.2702          0.6804E+06
    726      1      8     26      0.2537          0.6804E+06
    727      1      8     27      0.2385          0.6804E+06
    728      1      8     28      0.2238          0.6804E+06
    729      1      8     29      0.2161          0.6804E+06
    730      1      8     30      0.2177          0.6804E+06
    731      1      8     31      0.2223          0.6804E+06
    732      1      8     32      0.2251          0.6804E+06
    733      1      8     33      0.2242          0.6804E+06
    734      1      8     34      0.2165          0.6804E+06
    735      1      8     35      0.2050          0.6804E+06
    736      1      8     36      0.1907          0.6804E+06
    737      1      8     37      0.1806          0.6804E+06
    738      1      8     38      0.1804          0.6804E+06
    739      1      8     39      0.1894          0.6804E+06
    740      1      8     40      0.1993          0.6804E+06
    741      1      8     41      0.2107          0.6804E+06
    742      1      8     42      0.2206          0.6804E+06
    743      1      8     43      0.2273          0.6804E+06
    744      1      8     44      0.2332          0.6804E+06
    745      1      8     45      0.2384          0.6804E+06
    746      1      8     46      0.2423          0.6804E+06
    747      1      8     47      0.2454          0.6804E+06
    748      1      8     48      0.2477          0.6804E+06
    749      1      8     49      0.2489          0.6804E+06
    750      1      8     50      0.2478          0.6804E+06
    751      1      8     51      0.2458          0.6804E+06
    752      1      8     52      0.2425          0.6804E+06
    753      1      8     53      0.2386          0.6804E+06
    754      1      8     54      0.2335          0.6804E+06
    755      1      8     55      0.2283          0.6804E+06
    756      1      8     56      0.2247          0.6804E+06
    757      1      8     57      0.2183          0.6804E+06
    758      1      8     58      0.2117          0.6804E+06
    759      1      8     59      0.2076          0.6804E+06
    760      1      8     60      0.2026          0.6804E+06
    761      1      8     61      0.1985          0.6804E+06
    762      1      8     62      0.1937          0.6804E+06
    763      1      8     63      0.1886          0.6804E+06
    764      1      8     64      0.1836          0.6804E+06
    765      1      8     65      0.1765          0.6804E+06
    766      1      8     66      0.1693          0.6804E+06
    767      1      8     67      0.1637          0.6804E+06
    768      1      8     68      0.1579          0.6804E+06
    769      1      8     69      0.1530          0.6804E+06
    770      1      8     70      0.1482          0.6804E+06
    771      1      8     71      0.1438          0.6804E+06
    772      1      8     72      0.1393          0.6804E+06
    773      1      8     73      0.1341          0.6804E+06
    774      1      8     74      0.1293          0.6804E+06
    775      1      8     75      0.1250          0.6804E+06
    776      1      8     76      0.1197          0.6804E+06
    777      1      8     77      0.1147          0.6804E+06
    778      1      8     78      0.1079          0.6804E+06
    779      1      8     79      0.1000          0.6804E+06
    780      1      8     80      0.9346E-01      0.6804E+06
    781      1      8     81      0.8885E-01      0.6804E+06
    782      1      8     82      0.8443E-01      0.6804E+06
    783      1      8     83      0.8025E-01      0.6804E+06
    784      1      8     84      0.7495E-01      0.6804E+06
    785      1      8     85      0.6975E-01      0.6804E+06
    786      1      8     86      0.6418E-01      0.6804E+06
    787      1      8     87      0.5803E-01      0.6804E+06
    788      1      8     88      0.5140E-01      0.6804E+06
    789      1      8     89      0.4222E-01      0.6804E+06
    790      1      8     90      0.3136E-01      0.6804E+06
    791      1      8     91      0.1844E-01      0.6804E+06
    792      1      8     92      0.1865E-02      0.6804E+06
    793      1      8     93       0.000          0.6804E+06
    794      1      8     94       0.000          0.6804E+06
    795      1      8     95     -0.8038E-01      0.6804E+06
    796      1      8     96     -0.1007          0.6804E+06
    797      1      8     97     -0.1204          0.6804E+06
    798      1      8     98     -0.1363          0.6804E+06
    799      1      8     99     -0.1683          0.6804E+06
    800      1      8    100     -0.2581          0.6804E+06
    801      1      9      1      0.4846          0.6804E+06
    802      1      9      2      0.4845          0.6804E+06
    803      1      9      3      0.4845          0.6804E+06
    804      1      9      4      0.4848          0.6804E+06
    805      1      9      5      0.4851          0.6804E+06
    806      1      9      6      0.4846          0.6804E+06
    807      1      9      7      0.4824          0.6804E+06
    808      1      9      8      0.4759          0.6804E+06
    809      1      9      9      0.4639          0.6804E+06
    810      1      9     10      0.4469          0.6804E+06
    811      1      9     11      0.4321          0.6804E+06
    812      1      9     12      0.4168          0.6804E+06
    813      1      9     13      0.4038          0.6804E+06
    814      1      9     14      0.3913          0.6804E+06
    815      1      9     15      0.3767          0.6804E+06
    816      1      9     16      0.3652          0.6804E+06
    817      1      9     17      0.3556          0.6804E+06
    818      1      9     18      0.3493          0.6804E+06
    819      1      9     19      0.3456          0.6804E+06
    820      1      9     20      0.3394          0.6804E+06
    821      1      9     21      0.3271          0.6804E+06
    822      1      9     22      0.3120          0.6804E+06
    823      1      9     23      0.2950          0.6804E+06
    824      1      9     24      0.2811          0.6804E+06
    825      1      9     25      0.2665          0.6804E+06
    826      1      9     26      0.2508          0.6804E+06
    827      1      9     27      0.2357          0.6804E+06
    828      1      9     28      0.2211          0.6804E+06
    829      1      9     29      0.2124          0.6804E+06
    830      1      9     30      0.2106          0.6804E+06
    831      1      9     31      0.2111          0.6804E+06
    832      1      9     32      0.2110          0.6804E+06
    833      1      9     33      0.2077          0.6804E+06
    834      1      9     34      0.1986          0.6804E+06
    835      1      9     35      0.1858          0.6804E+06
    836      1      9     36      0.1688          0.6804E+06
    837      1      9     37      0.1574          0.6804E+06
    838      1      9     38      0.1597          0.6804E+06
    839      1      9     39      0.1728          0.6804E+06
    840      1      9     40      0.1848          0.6804E+06
    841      1      9     41      0.1968          0.6804E+06
    842      1      9     42      0.2062          0.6804E+06
    843      1      9     43      0.2122          0.6804E+06
    844      1      9     44      0.2168          0.6804E+06
    845      1      9     45      0.2205          0.6804E+06
    846      1      9     46      0.2230          0.6804E+06
    847      1      9     47      0.2249          0.6804E+06
    848      1      9     48      0.2270          0.6804E+06
    849      1      9     49      0.2288          0.6804E+06
    850      1      9     50      0.2291          0.6804E+06
    851      1      9     51      0.2283          0.6804E+06
    852      1      9     52      0.2264          0.6804E+06
    853      1      9     53      0.2234          0.6804E+06
    854      1      9     54      0.2192          0.6804E+06
    855      1      9     55      0.2146          0.6804E+06
    856      1      9     56      0.2109          0.6804E+06
    857      1      9     57      0.2055          0.6804E+06
    858      1      9     58      0.2002          0.6804E+06
    859      1      9     59      0.1961          0.6804E+06
    860      1      9     60      0.1912          0.6804E+06
    861      1      9     61      0.1874          0.6804E+06
    862      1      9     62      0.1830          0.6804E+06
    863      1      9     63      0.1778          0.6804E+06
    864      1      9     64      0.1726          0.6804E+06
    865      1      9     65      0.1657          0.6804E+06
    866      1      9     66      0.1583          0.6804E+06
    867      1      9     67      0.1525          0.6804E+06
    868      1      9     68      0.1473          0.6804E+06
    869      1      9     69      0.1425          0.6804E+06
    870      1      9     70      0.1372          0.6804E+06
    871      1      9     71      0.1322          0.6804E+06
    872      1      9     72      0.1275          0.6804E+06
    873      1      9     73      0.1217          0.6804E+06
    874      1      9     74      0.1164          0.6804E+06
    875      1      9     75      0.1121          0.6804E+06
    876      1      9     76      0.1077          0.6804E+06
    877      1      9     77      0.1036          0.6804E+06
    878      1      9     78      0.9777E-01      0.6804E+06
    879      1      9     79      0.9066E-01      0.6804E+06
    880      1      9     80      0.8461E-01      0.6804E+06
    881      1      9     81      0.8050E-01      0.6804E+06
    882      1      9     82      0.7650E-01      0.6804E+06
    883      1      9     83      0.7250E-01      0.6804E+06
    884      1      9     84      0.6717E-01      0.6804E+06
    885      1      9     85      0.6218E-01      0.6804E+06
    886      1      9     86      0.5563E-01      0.6804E+06
    887      1      9     87      0.4796E-01      0.6804E+06
    888      1      9     88      0.3998E-01      0.6804E+06
    889      1      9     89      0.2944E-01      0.6804E+06
    890      1      9     90      0.1802E-01      0.6804E+06
    891      1      9     91      0.3275E-02      0.6804E+06
    892      1      9     92       0.000          0.6804E+06
    893      1      9     93       0.000          0.6804E+06
    894      1      9     94     -0.7698E-01      0.6804E+06
    895      1      9     95     -0.1038          0.6804E+06
    896      1      9     96     -0.1242          0.6804E+06
    897      1      9     97     -0.1357          0.6804E+06
    898      1      9     98     -0.1550          0.6804E+06
    899      1      9     99     -0.2520          0.6804E+06
    900      1      9    100     -0.2207          0.6804E+06
    901      1     10      1      0.4910          0.6804E+06
    902      1     10      2      0.4909          0.6804E+06
    903      1     10      3      0.4909          0.6804E+06
    904      1     10      4      0.4908          0.6804E+06
    905      1     10      5      0.4905          0.6804E+06
    906      1     10      6      0.4898          0.6804E+06
    907      1     10      7      0.4881          0.6804E+06
    908      1     10      8      0.4815          0.6804E+06
    909      1     10      9      0.4647          0.6804E+06
    910      1     10     10      0.4426          0.6804E+06
    911      1     10     11      0.4242          0.6804E+06
    912      1     10     12      0.4065          0.6804E+06
    913      1     10     13      0.3934          0.6804E+06
    914      1     10     14      0.3794          0.6804E+06
    915      1     10     15      0.3629          0.6804E+06
    916      1     10     16      0.3505          0.6804E+06
    917      1     10     17      0.3411          0.6804E+06
    918      1     10     18      0.3353          0.6804E+06
    919      1     10     19      0.3326          0.6804E+06
    920      1     10     20      0.3275          0.6804E+06
    921      1     10     21      0.3154          0.6804E+06
    922      1     10     22      0.3006          0.6804E+06
    923      1     10     23      0.2842          0.6804E+06
    924      1     10     24      0.2709          0.6804E+06
    925      1     10     25      0.2572          0.6804E+06
    926      1     10     26      0.2427          0.6804E+06
    927      1     10     27      0.2289          0.6804E+06
    928      1     10     28      0.2155          0.6804E+06
    929      1     10     29      0.2067          0.6804E+06
    930      1     10     30      0.2028          0.6804E+06
    931      1     10     31      0.2007          0.6804E+06
    932      1     10     32      0.1990          0.6804E+06
    933      1     10     33      0.1952          0.6804E+06
    934      1     10     34      0.1867          0.6804E+06
    935      1     10     35      0.1746          0.6804E+06
    936      1     10     36      0.1550          0.6804E+06
    937      1     10     37      0.1413          0.6804E+06
    938      1     10     38      0.1471          0.6804E+06
    939      1     10     39      0.1633          0.6804E+06
    940      1     10     40      0.1758          0.6804E+06
    941      1     10     41      0.1863          0.6804E+06
    942      1     10     42      0.1935          0.6804E+06
    943      1     10     43      0.1976          0.6804E+06
    944      1     10     44      0.2002          0.6804E+06
    945      1     10     45      0.2017          0.6804E+06
    946      1     10     46      0.2024          0.6804E+06
    947      1     10     47      0.2028          0.6804E+06
    948      1     10     48      0.2048          0.6804E+06
    949      1     10     49      0.2073          0.6804E+06
    950      1     10     50      0.2087          0.6804E+06
    951      1     10     51      0.2090          0.6804E+06
    952      1     10     52      0.2079          0.6804E+06
    953      1     10     53      0.2058          0.6804E+06
    954      1     10     54      0.2026          0.6804E+06
    955      1     10     55      0.1986          0.6804E+06
    956      1     10     56      0.1948          0.6804E+06
    957      1     10     57      0.1904          0.6804E+06
    958      1     10     58      0.1862          0.6804E+06
    959      1     10     59      0.1821          0.6804E+06
    960      1     10     60      0.1775          0.6804E+06
    961      1     10     61      0.1740          0.6804E+06
    962      1     10     62      0.1699          0.6804E+06
    963      1     10     63      0.1649          0.6804E+06
    964      1     10     64      0.1595          0.6804E+06
    965      1     10     65      0.1526          0.6804E+06
    966      1     10     66      0.1451          0.6804E+06
    967      1     10     67      0.1389          0.6804E+06
    968      1     10     68      0.1335          0.6804E+06
    969      1     10     69      0.1289          0.6804E+06
    970      1     10     70      0.1239          0.6804E+06
    971      1     10     71      0.1190          0.6804E+06
    972      1     10     72      0.1141          0.6804E+06
    973      1     10     73      0.1077          0.6804E+06
    974      1     10     74      0.1018          0.6804E+06
    975      1     10     75      0.9769E-01      0.6804E+06
    976      1     10     76      0.9470E-01      0.6804E+06
    977      1     10     77      0.9187E-01      0.6804E+06
    978      1     10     78      0.8740E-01      0.6804E+06
    979      1     10     79      0.8168E-01      0.6804E+06
    980      1     10     80      0.7663E-01      0.6804E+06
    981      1     10     81      0.7193E-01      0.6804E+06
    982      1     10     82      0.6758E-01      0.6804E+06
    983      1     10     83      0.6340E-01      0.6804E+06
    984      1     10     84      0.5770E-01      0.6804E+06
    985      1     10     85      0.5233E-01      0.6804E+06
    986      1     10     86      0.4414E-01      0.6804E+06
    987      1     10     87      0.3412E-01      0.6804E+06
    988      1     10     88      0.2380E-01      0.6804E+06
    989      1     10     89      0.1137E-01      0.6804E+06
    990      1     10     90       0.000          0.6804E+06
    991      1     10     91       0.000          0.6804E+06
    992      1     10     92       0.000          0.6804E+06
    993      1     10     93     -0.8005E-01      0.6804E+06
    994      1     10     94     -0.1037          0.6804E+06
    995      1     10     95     -0.1303          0.6804E+06
    996      1     10     96     -0.1401          0.6804E+06
    997      1     10     97     -0.1600          0.6804E+06
    998      1     10     98     -0.2419          0.6804E+06
    999      1     10     99     -0.2095          0.6804E+06
   1000      1     10    100     -0.1550          0.6804E+06
   1001      1     11      1      0.4964          0.6804E+06
   1002      1     11      2      0.4960          0.6804E+06
   1003      1     11      3      0.4955          0.6804E+06
   1004      1     11      4      0.4946          0.6804E+06
   1005      1     11      5      0.4931          0.6804E+06
   1006      1     11      6      0.4907          0.6804E+06
   1007      1     11      7      0.4860          0.6804E+06
   1008      1     11      8      0.4755          0.6804E+06
   1009      1     11      9      0.4569          0.6804E+06
   1010      1     11     10      0.4316          0.6804E+06
   1011      1     11     11      0.4092          0.6804E+06
   1012      1     11     12      0.3863          0.6804E+06
   1013      1     11     13      0.3678          0.6804E+06
   1014      1     11     14      0.3528          0.6804E+06
   1015      1     11     15      0.3383          0.6804E+06
   1016      1     11     16      0.3288          0.6804E+06
   1017      1     11     17      0.3209          0.6804E+06
   1018      1     11     18      0.3155          0.6804E+06
   1019      1     11     19      0.3116          0.6804E+06
   1020      1     11     20      0.3054          0.6804E+06
   1021      1     11     21      0.2945          0.6804E+06
   1022      1     11     22      0.2823          0.6804E+06
   1023      1     11     23      0.2679          0.6804E+06
   1024      1     11     24      0.2554          0.6804E+06
   1025      1     11     25      0.2421          0.6804E+06
   1026      1     11     26      0.2289          0.6804E+06
   1027      1     11     27      0.2175          0.6804E+06
   1028      1     11     28      0.2064          0.6804E+06
   1029      1     11     29      0.1986          0.6804E+06
   1030      1     11     30      0.1943          0.6804E+06
   1031      1     11     31      0.1917          0.6804E+06
   1032      1     11     32      0.1902          0.6804E+06
   1033      1     11     33      0.1880          0.6804E+06
   1034      1     11     34      0.1833          0.6804E+06
   1035      1     11     35      0.1763          0.6804E+06
   1036      1     11     36      0.1644          0.6804E+06
   1037      1     11     37      0.1563          0.6804E+06
   1038      1     11     38      0.1601          0.6804E+06
   1039      1     11     39      0.1693          0.6804E+06
   1040      1     11     40      0.1763          0.6804E+06
   1041      1     11     41      0.1815          0.6804E+06
   1042      1     11     42      0.1845          0.6804E+06
   1043      1     11     43      0.1858          0.6804E+06
   1044      1     11     44      0.1860          0.6804E+06
   1045      1     11     45      0.1852          0.6804E+06
   1046      1     11     46      0.1835          0.6804E+06
   1047      1     11     47      0.1819          0.6804E+06
   1048      1     11     48      0.1839          0.6804E+06
   1049      1     11     49      0.1876          0.6804E+06
   1050      1     11     50      0.1900          0.6804E+06
   1051      1     11     51      0.1909          0.6804E+06
   1052      1     11     52      0.1907          0.6804E+06
   1053      1     11     53      0.1891          0.6804E+06
   1054      1     11     54      0.1861          0.6804E+06
   1055      1     11     55      0.1827          0.6804E+06
   1056      1     11     56      0.1796          0.6804E+06
   1057      1     11     57      0.1755          0.6804E+06
   1058      1     11     58      0.1713          0.6804E+06
   1059      1     11     59      0.1677          0.6804E+06
   1060      1     11     60      0.1634          0.6804E+06
   1061      1     11     61      0.1600          0.6804E+06
   1062      1     11     62      0.1560          0.6804E+06
   1063      1     11     63      0.1514          0.6804E+06
   1064      1     11     64      0.1463          0.6804E+06
   1065      1     11     65      0.1389          0.6804E+06
   1066      1     11     66      0.1304          0.6804E+06
   1067      1     11     67      0.1237          0.6804E+06
   1068      1     11     68      0.1186          0.6804E+06
   1069      1     11     69      0.1149          0.6804E+06
   1070      1     11     70      0.1109          0.6804E+06
   1071      1     11     71      0.1065          0.6804E+06
   1072      1     11     72      0.1019          0.6804E+06
   1073      1     11     73      0.9568E-01      0.6804E+06
   1074      1     11     74      0.9004E-01      0.6804E+06
   1075      1     11     75      0.8625E-01      0.6804E+06
   1076      1     11     76      0.8396E-01      0.6804E+06
   1077      1     11     77      0.8147E-01      0.6804E+06
   1078      1     11     78      0.7762E-01      0.6804E+06
   1079      1     11     79      0.7270E-01      0.6804E+06
   1080      1     11     80      0.6809E-01      0.6804E+06
   1081      1     11     81      0.6301E-01      0.6804E+06
   1082      1     11     82      0.5786E-01      0.6804E+06
   1083      1     11     83      0.5327E-01      0.6804E+06
   1084      1     11     84      0.4735E-01      0.6804E+06
   1085      1     11     85      0.3999E-01      0.6804E+06
   1086      1     11     86      0.2950E-01      0.6804E+06
   1087      1     11     87      0.1704E-01      0.6804E+06
   1088      1     11     88      0.5363E-02      0.6804E+06
   1089      1     11     89       0.000          0.6804E+06
   1090      1     11     90       0.000          0.6804E+06
   1091      1     11     91     -0.6310E-01      0.6804E+06
   1092      1     11     92     -0.8652E-01      0.6804E+06
   1093      1     11     93     -0.1029          0.6804E+06
   1094      1     11     94     -0.1237          0.6804E+06
   1095      1     11     95     -0.1383          0.6804E+06
   1096      1     11     96     -0.1603          0.6804E+06
   1097      1     11     97     -0.2289          0.6804E+06
   1098      1     11     98     -0.2050          0.6804E+06
   1099      1     11     99     -0.1569          0.6804E+06
   1100      1     11    100     -0.1391          0.6804E+06
   1101      1     12      1      0.5005          0.6804E+06
   1102      1     12      2      0.4995          0.6804E+06
   1103      1     12      3      0.4984          0.6804E+06
   1104      1     12      4      0.4965          0.6804E+06
   1105      1     12      5      0.4937          0.6804E+06
   1106      1     12      6      0.4895          0.6804E+06
   1107      1     12      7      0.4814          0.6804E+06
   1108      1     12      8      0.4671          0.6804E+06
   1109      1     12      9      0.4475          0.6804E+06
   1110      1     12     10      0.4195          0.6804E+06
   1111      1     12     11      0.3936          0.6804E+06
   1112      1     12     12      0.3655          0.6804E+06
   1113      1     12     13      0.3402          0.6804E+06
   1114      1     12     14      0.3244          0.6804E+06
   1115      1     12     15      0.3130          0.6804E+06
   1116      1     12     16      0.3076          0.6804E+06
   1117      1     12     17      0.3017          0.6804E+06
   1118      1     12     18      0.2963          0.6804E+06
   1119      1     12     19      0.2915          0.6804E+06
   1120      1     12     20      0.2843          0.6804E+06
   1121      1     12     21      0.2741          0.6804E+06
   1122      1     12     22      0.2635          0.6804E+06
   1123      1     12     23      0.2507          0.6804E+06
   1124      1     12     24      0.2391          0.6804E+06
   1125      1     12     25      0.2265          0.6804E+06
   1126      1     12     26      0.2146          0.6804E+06
   1127      1     12     27      0.2049          0.6804E+06
   1128      1     12     28      0.1957          0.6804E+06
   1129      1     12     29      0.1895          0.6804E+06
   1130      1     12     30      0.1857          0.6804E+06
   1131      1     12     31      0.1838          0.6804E+06
   1132      1     12     32      0.1838          0.6804E+06
   1133      1     12     33      0.1843          0.6804E+06
   1134      1     12     34      0.1846          0.6804E+06
   1135      1     12     35      0.1850          0.6804E+06
   1136      1     12     36      0.1852          0.6804E+06
   1137      1     12     37      0.1857          0.6804E+06
   1138      1     12     38      0.1843          0.6804E+06
   1139      1     12     39      0.1823          0.6804E+06
   1140      1     12     40      0.1810          0.6804E+06
   1141      1     12     41      0.1797          0.6804E+06
   1142      1     12     42      0.1785          0.6804E+06
   1143      1     12     43      0.1776          0.6804E+06
   1144      1     12     44      0.1758          0.6804E+06
   1145      1     12     45      0.1730          0.6804E+06
   1146      1     12     46      0.1701          0.6804E+06
   1147      1     12     47      0.1677          0.6804E+06
   1148      1     12     48      0.1694          0.6804E+06
   1149      1     12     49      0.1730          0.6804E+06
   1150      1     12     50      0.1752          0.6804E+06
   1151      1     12     51      0.1764          0.6804E+06
   1152      1     12     52      0.1764          0.6804E+06
   1153      1     12     53      0.1743          0.6804E+06
   1154      1     12     54      0.1706          0.6804E+06
   1155      1     12     55      0.1693          0.6804E+06
   1156      1     12     56      0.1667          0.6804E+06
   1157      1     12     57      0.1628          0.6804E+06
   1158      1     12     58      0.1588          0.6804E+06
   1159      1     12     59      0.1551          0.6804E+06
   1160      1     12     60      0.1509          0.6804E+06
   1161      1     12     61      0.1473          0.6804E+06
   1162      1     12     62      0.1432          0.6804E+06
   1163      1     12     63      0.1389          0.6804E+06
   1164      1     12     64      0.1344          0.6804E+06
   1165      1     12     65      0.1265          0.6804E+06
   1166      1     12     66      0.1167          0.6804E+06
   1167      1     12     67      0.1092          0.6804E+06
   1168      1     12     68      0.1054          0.6804E+06
   1169      1     12     69      0.1031          0.6804E+06
   1170      1     12     70      0.1002          0.6804E+06
   1171      1     12     71      0.9652E-01      0.6804E+06
   1172      1     12     72      0.9234E-01      0.6804E+06
   1173      1     12     73      0.8685E-01      0.6804E+06
   1174      1     12     74      0.8189E-01      0.6804E+06
   1175      1     12     75      0.7844E-01      0.6804E+06
   1176      1     12     76      0.7588E-01      0.6804E+06
   1177      1     12     77      0.7315E-01      0.6804E+06
   1178      1     12     78      0.6915E-01      0.6804E+06
   1179      1     12     79      0.6400E-01      0.6804E+06
   1180      1     12     80      0.5893E-01      0.6804E+06
   1181      1     12     81      0.5325E-01      0.6804E+06
   1182      1     12     82      0.4783E-01      0.6804E+06
   1183      1     12     83      0.4289E-01      0.6804E+06
   1184      1     12     84      0.3546E-01      0.6804E+06
   1185      1     12     85      0.2601E-01      0.6804E+06
   1186      1     12     86      0.1418E-01      0.6804E+06
   1187      1     12     87      0.9250E-03      0.6804E+06
   1188      1     12     88       0.000          0.6804E+06
   1189      1     12     89       0.000          0.6804E+06
   1190      1     12     90     -0.7046E-01      0.6804E+06
   1191      1     12     91     -0.8687E-01      0.6804E+06
   1192      1     12     92     -0.1042          0.6804E+06
   1193      1     12     93     -0.1183          0.6804E+06
   1194      1     12     94     -0.1342          0.6804E+06
   1195      1     12     95     -0.1562          0.6804E+06
   1196      1     12     96     -0.2266          0.6804E+06
   1197      1     12     97     -0.1988          0.6804E+06
   1198      1     12     98     -0.1559          0.6804E+06
   1199      1     12     99     -0.1234          0.6804E+06
   1200      1     12    100     -0.1214          0.6804E+06
   1201      1     13      1      0.5044          0.6804E+06
   1202      1     13      2      0.5024          0.6804E+06
   1203      1     13      3      0.5004          0.6804E+06
   1204      1     13      4      0.4974          0.6804E+06
   1205      1     13      5      0.4931          0.6804E+06
   1206      1     13      6      0.4871          0.6804E+06
   1207      1     13      7      0.4765          0.6804E+06
   1208      1     13      8      0.4596          0.6804E+06
   1209      1     13      9      0.4382          0.6804E+06
   1210      1     13     10      0.4073          0.6804E+06
   1211      1     13     11      0.3781          0.6804E+06
   1212      1     13     12      0.3455          0.6804E+06
   1213      1     13     13      0.3149          0.6804E+06
   1214      1     13     14      0.2984          0.6804E+06
   1215      1     13     15      0.2888          0.6804E+06
   1216      1     13     16      0.2856          0.6804E+06
   1217      1     13     17      0.2810          0.6804E+06
   1218      1     13     18      0.2750          0.6804E+06
   1219      1     13     19      0.2690          0.6804E+06
   1220      1     13     20      0.2607          0.6804E+06
   1221      1     13     21      0.2508          0.6804E+06
   1222      1     13     22      0.2413          0.6804E+06
   1223      1     13     23      0.2297          0.6804E+06
   1224      1     13     24      0.2189          0.6804E+06
   1225      1     13     25      0.2072          0.6804E+06
   1226      1     13     26      0.1967          0.6804E+06
   1227      1     13     27      0.1884          0.6804E+06
   1228      1     13     28      0.1810          0.6804E+06
   1229      1     13     29      0.1766          0.6804E+06
   1230      1     13     30      0.1743          0.6804E+06
   1231      1     13     31      0.1738          0.6804E+06
   1232      1     13     32      0.1755          0.6804E+06
   1233      1     13     33      0.1799          0.6804E+06
   1234      1     13     34      0.1864          0.6804E+06
   1235      1     13     35      0.1954          0.6804E+06
   1236      1     13     36      0.2086          0.6804E+06
   1237      1     13     37      0.2184          0.6804E+06
   1238      1     13     38      0.2114          0.6804E+06
   1239      1     13     39      0.1974          0.6804E+06
   1240      1     13     40      0.1865          0.6804E+06
   1241      1     13     41      0.1780          0.6804E+06
   1242      1     13     42      0.1723          0.6804E+06
   1243      1     13     43      0.1693          0.6804E+06
   1244      1     13     44      0.1655          0.6804E+06
   1245      1     13     45      0.1614          0.6804E+06
   1246      1     13     46      0.1585          0.6804E+06
   1247      1     13     47      0.1564          0.6804E+06
   1248      1     13     48      0.1572          0.6804E+06
   1249      1     13     49      0.1594          0.6804E+06
   1250      1     13     50      0.1607          0.6804E+06
   1251      1     13     51      0.1615          0.6804E+06
   1252      1     13     52      0.1604          0.6804E+06
   1253      1     13     53      0.1583          0.6804E+06
   1254      1     13     54      0.1563          0.6804E+06
   1255      1     13     55      0.1549          0.6804E+06
   1256      1     13     56      0.1521          0.6804E+06
   1257      1     13     57      0.1480          0.6804E+06
   1258      1     13     58      0.1438          0.6804E+06
   1259      1     13     59      0.1399          0.6804E+06
   1260      1     13     60      0.1354          0.6804E+06
   1261      1     13     61      0.1316          0.6804E+06
   1262      1     13     62      0.1272          0.6804E+06
   1263      1     13     63      0.1240          0.6804E+06
   1264      1     13     64      0.1198          0.6804E+06
   1265      1     13     65      0.1122          0.6804E+06
   1266      1     13     66      0.1019          0.6804E+06
   1267      1     13     67      0.9317E-01      0.6804E+06
   1268      1     13     68      0.9147E-01      0.6804E+06
   1269      1     13     69      0.9093E-01      0.6804E+06
   1270      1     13     70      0.8931E-01      0.6804E+06
   1271      1     13     71      0.8636E-01      0.6804E+06
   1272      1     13     72      0.8272E-01      0.6804E+06
   1273      1     13     73      0.7806E-01      0.6804E+06
   1274      1     13     74      0.7389E-01      0.6804E+06
   1275      1     13     75      0.7073E-01      0.6804E+06
   1276      1     13     76      0.6702E-01      0.6804E+06
   1277      1     13     77      0.6354E-01      0.6804E+06
   1278      1     13     78      0.5881E-01      0.6804E+06
   1279      1     13     79      0.5279E-01      0.6804E+06
   1280      1     13     80      0.4697E-01      0.6804E+06
   1281      1     13     81      0.3993E-01      0.6804E+06
   1282      1     13     82      0.3310E-01      0.6804E+06
   1283      1     13     83      0.2724E-01      0.6804E+06
   1284      1     13     84      0.1894E-01      0.6804E+06
   1285      1     13     85      0.7591E-02      0.6804E+06
   1286      1     13     86       0.000          0.6804E+06
   1287      1     13     87       0.000          0.6804E+06
   1288      1     13     88     -0.5507E-01      0.6804E+06
   1289      1     13     89     -0.7767E-01      0.6804E+06
   1290      1     13     90     -0.9604E-01      0.6804E+06
   1291      1     13     91     -0.1095          0.6804E+06
   1292      1     13     92     -0.1211          0.6804E+06
   1293      1     13     93     -0.1322          0.6804E+06
   1294      1     13     94     -0.1323          0.6804E+06
   1295      1     13     95     -0.1705          0.6804E+06
   1296      1     13     96     -0.2359          0.6804E+06
   1297      1     13     97     -0.1808          0.6804E+06
   1298      1     13     98     -0.1415          0.6804E+06
   1299      1     13     99     -0.1149          0.6804E+06
   1300      1     13    100     -0.1151          0.6804E+06
   1301      1     14      1      0.5075          0.6804E+06
   1302      1     14      2      0.5045          0.6804E+06
   1303      1     14      3      0.5015          0.6804E+06
   1304      1     14      4      0.4975          0.6804E+06
   1305      1     14      5      0.4922          0.6804E+06
   1306      1     14      6      0.4855          0.6804E+06
   1307      1     14      7      0.4742          0.6804E+06
   1308      1     14      8      0.4567          0.6804E+06
   1309      1     14      9      0.4344          0.6804E+06
   1310      1     14     10      0.4021          0.6804E+06
   1311      1     14     11      0.3712          0.6804E+06
   1312      1     14     12      0.3364          0.6804E+06
   1313      1     14     13      0.3056          0.6804E+06
   1314      1     14     14      0.2873          0.6804E+06
   1315      1     14     15      0.2750          0.6804E+06
   1316      1     14     16      0.2695          0.6804E+06
   1317      1     14     17      0.2634          0.6804E+06
   1318      1     14     18      0.2561          0.6804E+06
   1319      1     14     19      0.2487          0.6804E+06
   1320      1     14     20      0.2391          0.6804E+06
   1321      1     14     21      0.2288          0.6804E+06
   1322      1     14     22      0.2196          0.6804E+06
   1323      1     14     23      0.2086          0.6804E+06
   1324      1     14     24      0.1984          0.6804E+06
   1325      1     14     25      0.1874          0.6804E+06
   1326      1     14     26      0.1778          0.6804E+06
   1327      1     14     27      0.1704          0.6804E+06
   1328      1     14     28      0.1641          0.6804E+06
   1329      1     14     29      0.1614          0.6804E+06
   1330      1     14     30      0.1607          0.6804E+06
   1331      1     14     31      0.1615          0.6804E+06
   1332      1     14     32      0.1645          0.6804E+06
   1333      1     14     33      0.1713          0.6804E+06
   1334      1     14     34      0.1816          0.6804E+06
   1335      1     14     35      0.1949          0.6804E+06
   1336      1     14     36      0.2137          0.6804E+06
   1337      1     14     37      0.2274          0.6804E+06
   1338      1     14     38      0.2180          0.6804E+06
   1339      1     14     39      0.1994          0.6804E+06
   1340      1     14     40      0.1844          0.6804E+06
   1341      1     14     41      0.1727          0.6804E+06
   1342      1     14     42      0.1647          0.6804E+06
   1343      1     14     43      0.1597          0.6804E+06
   1344      1     14     44      0.1550          0.6804E+06
   1345      1     14     45      0.1516          0.6804E+06
   1346      1     14     46      0.1502          0.6804E+06
   1347      1     14     47      0.1491          0.6804E+06
   1348      1     14     48      0.1487          0.6804E+06
   1349      1     14     49      0.1486          0.6804E+06
   1350      1     14     50      0.1485          0.6804E+06
   1351      1     14     51      0.1477          0.6804E+06
   1352      1     14     52      0.1458          0.6804E+06
   1353      1     14     53      0.1444          0.6804E+06
   1354      1     14     54      0.1436          0.6804E+06
   1355      1     14     55      0.1409          0.6804E+06
   1356      1     14     56      0.1375          0.6804E+06
   1357      1     14     57      0.1331          0.6804E+06
   1358      1     14     58      0.1289          0.6804E+06
   1359      1     14     59      0.1246          0.6804E+06
   1360      1     14     60      0.1194          0.6804E+06
   1361      1     14     61      0.1155          0.6804E+06
   1362      1     14     62      0.1122          0.6804E+06
   1363      1     14     63      0.1099          0.6804E+06
   1364      1     14     64      0.1065          0.6804E+06
   1365      1     14     65      0.1005          0.6804E+06
   1366      1     14     66      0.9264E-01      0.6804E+06
   1367      1     14     67      0.8619E-01      0.6804E+06
   1368      1     14     68      0.8330E-01      0.6804E+06
   1369      1     14     69      0.8193E-01      0.6804E+06
   1370      1     14     70      0.8018E-01      0.6804E+06
   1371      1     14     71      0.7730E-01      0.6804E+06
   1372      1     14     72      0.7382E-01      0.6804E+06
   1373      1     14     73      0.6933E-01      0.6804E+06
   1374      1     14     74      0.6537E-01      0.6804E+06
   1375      1     14     75      0.6226E-01      0.6804E+06
   1376      1     14     76      0.5722E-01      0.6804E+06
   1377      1     14     77      0.5278E-01      0.6804E+06
   1378      1     14     78      0.4708E-01      0.6804E+06
   1379      1     14     79      0.3986E-01      0.6804E+06
   1380      1     14     80      0.3278E-01      0.6804E+06
   1381      1     14     81      0.2332E-01      0.6804E+06
   1382      1     14     82      0.1378E-01      0.6804E+06
   1383      1     14     83      0.6767E-02      0.6804E+06
   1384      1     14     84       0.000          0.6804E+06
   1385      1     14     85       0.000          0.6804E+06
   1386      1     14     86       0.000          0.6804E+06
   1387      1     14     87     -0.6990E-01      0.6804E+06
   1388      1     14     88     -0.8457E-01      0.6804E+06
   1389      1     14     89     -0.1005          0.6804E+06
   1390      1     14     90     -0.1123          0.6804E+06
   1391      1     14     91     -0.1239          0.6804E+06
   1392      1     14     92     -0.1294          0.6804E+06
   1393      1     14     93     -0.1235          0.6804E+06
   1394      1     14     94     -0.1113          0.6804E+06
   1395      1     14     95     -0.1083          0.6804E+06
   1396      1     14     96     -0.1203          0.6804E+06
   1397      1     14     97     -0.1151          0.6804E+06
   1398      1     14     98     -0.9548E-01      0.6804E+06
   1399      1     14     99     -0.9044E-01      0.6804E+06
   1400      1     14    100     -0.9852E-01      0.6804E+06
   1401      1     15      1      0.5097          0.6804E+06
   1402      1     15      2      0.5056          0.6804E+06
   1403      1     15      3      0.5017          0.6804E+06
   1404      1     15      4      0.4968          0.6804E+06
   1405      1     15      5      0.4910          0.6804E+06
   1406      1     15      6      0.4845          0.6804E+06
   1407      1     15      7      0.4742          0.6804E+06
   1408      1     15      8      0.4581          0.6804E+06
   1409      1     15      9      0.4357          0.6804E+06
   1410      1     15     10      0.4026          0.6804E+06
   1411      1     15     11      0.3704          0.6804E+06
   1412      1     15     12      0.3344          0.6804E+06
   1413      1     15     13      0.3034          0.6804E+06
   1414      1     15     14      0.2839          0.6804E+06
   1415      1     15     15      0.2688          0.6804E+06
   1416      1     15     16      0.2604          0.6804E+06
   1417      1     15     17      0.2518          0.6804E+06
   1418      1     15     18      0.2425          0.6804E+06
   1419      1     15     19      0.2338          0.6804E+06
   1420      1     15     20      0.2228          0.6804E+06
   1421      1     15     21      0.2115          0.6804E+06
   1422      1     15     22      0.2016          0.6804E+06
   1423      1     15     23      0.1904          0.6804E+06
   1424      1     15     24      0.1804          0.6804E+06
   1425      1     15     25      0.1697          0.6804E+06
   1426      1     15     26      0.1606          0.6804E+06
   1427      1     15     27      0.1537          0.6804E+06
   1428      1     15     28      0.1482          0.6804E+06
   1429      1     15     29      0.1468          0.6804E+06
   1430      1     15     30      0.1467          0.6804E+06
   1431      1     15     31      0.1483          0.6804E+06
   1432      1     15     32      0.1522          0.6804E+06
   1433      1     15     33      0.1601          0.6804E+06
   1434      1     15     34      0.1709          0.6804E+06
   1435      1     15     35      0.1831          0.6804E+06
   1436      1     15     36      0.1983          0.6804E+06
   1437      1     15     37      0.2078          0.6804E+06
   1438      1     15     38      0.2007          0.6804E+06
   1439      1     15     39      0.1863          0.6804E+06
   1440      1     15     40      0.1735          0.6804E+06
   1441      1     15     41      0.1624          0.6804E+06
   1442      1     15     42      0.1549          0.6804E+06
   1443      1     15     43      0.1497          0.6804E+06
   1444      1     15     44      0.1454          0.6804E+06
   1445      1     15     45      0.1435          0.6804E+06
   1446      1     15     46      0.1436          0.6804E+06
   1447      1     15     47      0.1428          0.6804E+06
   1448      1     15     48      0.1416          0.6804E+06
   1449      1     15     49      0.1399          0.6804E+06
   1450      1     15     50      0.1384          0.6804E+06
   1451      1     15     51      0.1357          0.6804E+06
   1452      1     15     52      0.1348          0.6804E+06
   1453      1     15     53      0.1345          0.6804E+06
   1454      1     15     54      0.1321          0.6804E+06
   1455      1     15     55      0.1286          0.6804E+06
   1456      1     15     56      0.1247          0.6804E+06
   1457      1     15     57      0.1202          0.6804E+06
   1458      1     15     58      0.1164          0.6804E+06
   1459      1     15     59      0.1120          0.6804E+06
   1460      1     15     60      0.1064          0.6804E+06
   1461      1     15     61      0.1027          0.6804E+06
   1462      1     15     62      0.1004          0.6804E+06
   1463      1     15     63      0.9913E-01      0.6804E+06
   1464      1     15     64      0.9672E-01      0.6804E+06
   1465      1     15     65      0.9227E-01      0.6804E+06
   1466      1     15     66      0.8654E-01      0.6804E+06
   1467      1     15     67      0.8177E-01      0.6804E+06
   1468      1     15     68      0.7807E-01      0.6804E+06
   1469      1     15     69      0.7570E-01      0.6804E+06
   1470      1     15     70      0.7318E-01      0.6804E+06
   1471      1     15     71      0.6998E-01      0.6804E+06
   1472      1     15     72      0.6634E-01      0.6804E+06
   1473      1     15     73      0.6178E-01      0.6804E+06
   1474      1     15     74      0.5740E-01      0.6804E+06
   1475      1     15     75      0.5345E-01      0.6804E+06
   1476      1     15     76      0.4765E-01      0.6804E+06
   1477      1     15     77      0.4245E-01      0.6804E+06
   1478      1     15     78      0.3577E-01      0.6804E+06
   1479      1     15     79      0.2695E-01      0.6804E+06
   1480      1     15     80      0.1672E-01      0.6804E+06
   1481      1     15     81      0.4409E-02      0.6804E+06
   1482      1     15     82       0.000          0.6804E+06
   1483      1     15     83       0.000          0.6804E+06
   1484      1     15     84       0.000          0.6804E+06
   1485      1     15     85     -0.5727E-01      0.6804E+06
   1486      1     15     86     -0.7659E-01      0.6804E+06
   1487      1     15     87     -0.9258E-01      0.6804E+06
   1488      1     15     88     -0.1039          0.6804E+06
   1489      1     15     89     -0.1146          0.6804E+06
   1490      1     15     90     -0.1237          0.6804E+06
   1491      1     15     91     -0.1298          0.6804E+06
   1492      1     15     92     -0.1364          0.6804E+06
   1493      1     15     93     -0.9256E-01      0.6804E+06
   1494      1     15     94     -0.6529E-01      0.6804E+06
   1495      1     15     95     -0.4532E-01      0.6804E+06
   1496      1     15     96     -0.3364E-01      0.6804E+06
   1497      1     15     97     -0.2528E-01      0.6804E+06
   1498      1     15     98     -0.1991E-01      0.6804E+06
   1499      1     15     99     -0.2013E-01      0.6804E+06
   1500      1     15    100     -0.2466E-01      0.6804E+06
   1501      1     16      1      0.5117          0.6804E+06
   1502      1     16      2      0.5062          0.6804E+06
   1503      1     16      3      0.5011          0.6804E+06
   1504      1     16      4      0.4951          0.6804E+06
   1505      1     16      5      0.4888          0.6804E+06
   1506      1     16      6      0.4828          0.6804E+06
   1507      1     16      7      0.4744          0.6804E+06
   1508      1     16      8      0.4616          0.6804E+06
   1509      1     16      9      0.4391          0.6804E+06
   1510      1     16     10      0.4047          0.6804E+06
   1511      1     16     11      0.3710          0.6804E+06
   1512      1     16     12      0.3335          0.6804E+06
   1513      1     16     13      0.3011          0.6804E+06
   1514      1     16     14      0.2806          0.6804E+06
   1515      1     16     15      0.2641          0.6804E+06
   1516      1     16     16      0.2535          0.6804E+06
   1517      1     16     17      0.2422          0.6804E+06
   1518      1     16     18      0.2306          0.6804E+06
   1519      1     16     19      0.2201          0.6804E+06
   1520      1     16     20      0.2073          0.6804E+06
   1521      1     16     21      0.1940          0.6804E+06
   1522      1     16     22      0.1829          0.6804E+06
   1523      1     16     23      0.1706          0.6804E+06
   1524      1     16     24      0.1597          0.6804E+06
   1525      1     16     25      0.1484          0.6804E+06
   1526      1     16     26      0.1396          0.6804E+06
   1527      1     16     27      0.1334          0.6804E+06
   1528      1     16     28      0.1290          0.6804E+06
   1529      1     16     29      0.1286          0.6804E+06
   1530      1     16     30      0.1287          0.6804E+06
   1531      1     16     31      0.1310          0.6804E+06
   1532      1     16     32      0.1358          0.6804E+06
   1533      1     16     33      0.1437          0.6804E+06
   1534      1     16     34      0.1528          0.6804E+06
   1535      1     16     35      0.1609          0.6804E+06
   1536      1     16     36      0.1686          0.6804E+06
   1537      1     16     37      0.1713          0.6804E+06
   1538      1     16     38      0.1682          0.6804E+06
   1539      1     16     39      0.1613          0.6804E+06
   1540      1     16     40      0.1537          0.6804E+06
   1541      1     16     41      0.1457          0.6804E+06
   1542      1     16     42      0.1414          0.6804E+06
   1543      1     16     43      0.1373          0.6804E+06
   1544      1     16     44      0.1339          0.6804E+06
   1545      1     16     45      0.1332          0.6804E+06
   1546      1     16     46      0.1338          0.6804E+06
   1547      1     16     47      0.1335          0.6804E+06
   1548      1     16     48      0.1321          0.6804E+06
   1549      1     16     49      0.1293          0.6804E+06
   1550      1     16     50      0.1260          0.6804E+06
   1551      1     16     51      0.1247          0.6804E+06
   1552      1     16     52      0.1238          0.6804E+06
   1553      1     16     53      0.1221          0.6804E+06
   1554      1     16     54      0.1190          0.6804E+06
   1555      1     16     55      0.1149          0.6804E+06
   1556      1     16     56      0.1106          0.6804E+06
   1557      1     16     57      0.1062          0.6804E+06
   1558      1     16     58      0.1032          0.6804E+06
   1559      1     16     59      0.9961E-01      0.6804E+06
   1560      1     16     60      0.9462E-01      0.6804E+06
   1561      1     16     61      0.9123E-01      0.6804E+06
   1562      1     16     62      0.8954E-01      0.6804E+06
   1563      1     16     63      0.8927E-01      0.6804E+06
   1564      1     16     64      0.8770E-01      0.6804E+06
   1565      1     16     65      0.8443E-01      0.6804E+06
   1566      1     16     66      0.8000E-01      0.6804E+06
   1567      1     16     67      0.7607E-01      0.6804E+06
   1568      1     16     68      0.7199E-01      0.6804E+06
   1569      1     16     69      0.6876E-01      0.6804E+06
   1570      1     16     70      0.6524E-01      0.6804E+06
   1571      1     16     71      0.6114E-01      0.6804E+06
   1572      1     16     72      0.5699E-01      0.6804E+06
   1573      1     16     73      0.5135E-01      0.6804E+06
   1574      1     16     74      0.4537E-01      0.6804E+06
   1575      1     16     75      0.4001E-01      0.6804E+06
   1576      1     16     76      0.3291E-01      0.6804E+06
   1577      1     16     77      0.2612E-01      0.6804E+06
   1578      1     16     78      0.1827E-01      0.6804E+06
   1579      1     16     79      0.9393E-02      0.6804E+06
   1580      1     16     80       0.000          0.6804E+06
   1581      1     16     81       0.000          0.6804E+06
   1582      1     16     82       0.000          0.6804E+06
   1583      1     16     83     -0.5502E-01      0.6804E+06
   1584      1     16     84     -0.7255E-01      0.6804E+06
   1585      1     16     85     -0.8768E-01      0.6804E+06
   1586      1     16     86     -0.1024          0.6804E+06
   1587      1     16     87     -0.1115          0.6804E+06
   1588      1     16     88     -0.1170          0.6804E+06
   1589      1     16     89     -0.1233          0.6804E+06
   1590      1     16     90     -0.1447          0.6804E+06
   1591      1     16     91     -0.1675          0.6804E+06
   1592      1     16     92     -0.8646E-01      0.6804E+06
   1593      1     16     93     -0.3336E-01      0.6804E+06
   1594      1     16     94     -0.6072E-02      0.6804E+06
   1595      1     16     95      0.8056E-02      0.6804E+06
   1596      1     16     96      0.1391E-01      0.6804E+06
   1597      1     16     97      0.1903E-01      0.6804E+06
   1598      1     16     98      0.2325E-01      0.6804E+06
   1599      1     16     99      0.2518E-01      0.6804E+06
   1600      1     16    100      0.2259E-01      0.6804E+06
   1601      1     17      1      0.5132          0.6804E+06
   1602      1     17      2      0.5061          0.6804E+06
   1603      1     17      3      0.4996          0.6804E+06
   1604      1     17      4      0.4924          0.6804E+06
   1605      1     17      5      0.4856          0.6804E+06
   1606      1     17      6      0.4796          0.6804E+06
   1607      1     17      7      0.4724          0.6804E+06
   1608      1     17      8      0.4619          0.6804E+06
   1609      1     17      9      0.4397          0.6804E+06
   1610      1     17     10      0.4053          0.6804E+06
   1611      1     17     11      0.3715          0.6804E+06
   1612      1     17     12      0.3337          0.6804E+06
   1613      1     17     13      0.3002          0.6804E+06
   1614      1     17     14      0.2792          0.6804E+06
   1615      1     17     15      0.2623          0.6804E+06
   1616      1     17     16      0.2502          0.6804E+06
   1617      1     17     17      0.2367          0.6804E+06
   1618      1     17     18      0.2231          0.6804E+06
   1619      1     17     19      0.2108          0.6804E+06
   1620      1     17     20      0.1962          0.6804E+06
   1621      1     17     21      0.1812          0.6804E+06
   1622      1     17     22      0.1685          0.6804E+06
   1623      1     17     23      0.1543          0.6804E+06
   1624      1     17     24      0.1419          0.6804E+06
   1625      1     17     25      0.1295          0.6804E+06
   1626      1     17     26      0.1200          0.6804E+06
   1627      1     17     27      0.1139          0.6804E+06
   1628      1     17     28      0.1103          0.6804E+06
   1629      1     17     29      0.1107          0.6804E+06
   1630      1     17     30      0.1120          0.6804E+06
   1631      1     17     31      0.1153          0.6804E+06
   1632      1     17     32      0.1203          0.6804E+06
   1633      1     17     33      0.1270          0.6804E+06
   1634      1     17     34      0.1337          0.6804E+06
   1635      1     17     35      0.1382          0.6804E+06
   1636      1     17     36      0.1404          0.6804E+06
   1637      1     17     37      0.1388          0.6804E+06
   1638      1     17     38      0.1377          0.6804E+06
   1639      1     17     39      0.1360          0.6804E+06
   1640      1     17     40      0.1331          0.6804E+06
   1641      1     17     41      0.1291          0.6804E+06
   1642      1     17     42      0.1276          0.6804E+06
   1643      1     17     43      0.1251          0.6804E+06
   1644      1     17     44      0.1228          0.6804E+06
   1645      1     17     45      0.1228          0.6804E+06
   1646      1     17     46      0.1235          0.6804E+06
   1647      1     17     47      0.1234          0.6804E+06
   1648      1     17     48      0.1220          0.6804E+06
   1649      1     17     49      0.1190          0.6804E+06
   1650      1     17     50      0.1160          0.6804E+06
   1651      1     17     51      0.1151          0.6804E+06
   1652      1     17     52      0.1138          0.6804E+06
   1653      1     17     53      0.1116          0.6804E+06
   1654      1     17     54      0.1082          0.6804E+06
   1655      1     17     55      0.1036          0.6804E+06
   1656      1     17     56      0.9933E-01      0.6804E+06
   1657      1     17     57      0.9552E-01      0.6804E+06
   1658      1     17     58      0.9389E-01      0.6804E+06
   1659      1     17     59      0.9159E-01      0.6804E+06
   1660      1     17     60      0.8807E-01      0.6804E+06
   1661      1     17     61      0.8546E-01      0.6804E+06
   1662      1     17     62      0.8386E-01      0.6804E+06
   1663      1     17     63      0.8290E-01      0.6804E+06
   1664      1     17     64      0.8115E-01      0.6804E+06
   1665      1     17     65      0.7799E-01      0.6804E+06
   1666      1     17     66      0.7371E-01      0.6804E+06
   1667      1     17     67      0.6994E-01      0.6804E+06
   1668      1     17     68      0.6543E-01      0.6804E+06
   1669      1     17     69      0.6161E-01      0.6804E+06
   1670      1     17     70      0.5726E-01      0.6804E+06
   1671      1     17     71      0.5201E-01      0.6804E+06
   1672      1     17     72      0.4704E-01      0.6804E+06
   1673      1     17     73      0.3964E-01      0.6804E+06
   1674      1     17     74      0.3137E-01      0.6804E+06
   1675      1     17     75      0.2447E-01      0.6804E+06
   1676      1     17     76      0.1673E-01      0.6804E+06
   1677      1     17     77      0.7928E-02      0.6804E+06
   1678      1     17     78       0.000          0.6804E+06
   1679      1     17     79       0.000          0.6804E+06
   1680      1     17     80       0.000          0.6804E+06
   1681      1     17     81     -0.5108E-01      0.6804E+06
   1682      1     17     82     -0.6802E-01      0.6804E+06
   1683      1     17     83     -0.8274E-01      0.6804E+06
   1684      1     17     84     -0.9991E-01      0.6804E+06
   1685      1     17     85     -0.1090          0.6804E+06
   1686      1     17     86     -0.1146          0.6804E+06
   1687      1     17     87     -0.1207          0.6804E+06
   1688      1     17     88     -0.1303          0.6804E+06
   1689      1     17     89     -0.1228          0.6804E+06
   1690      1     17     90     -0.1321          0.6804E+06
   1691      1     17     91     -0.1019          0.6804E+06
   1692      1     17     92     -0.4046E-01      0.6804E+06
   1693      1     17     93     -0.4846E-02      0.6804E+06
   1694      1     17     94      0.2199E-01      0.6804E+06
   1695      1     17     95      0.3200E-01      0.6804E+06
   1696      1     17     96      0.3853E-01      0.6804E+06
   1697      1     17     97      0.4280E-01      0.6804E+06
   1698      1     17     98      0.4569E-01      0.6804E+06
   1699      1     17     99      0.4825E-01      0.6804E+06
   1700      1     17    100      0.4855E-01      0.6804E+06
   1701      1     18      1      0.5150          0.6804E+06
   1702      1     18      2      0.5057          0.6804E+06
   1703      1     18      3      0.4971          0.6804E+06
   1704      1     18      4      0.4879          0.6804E+06
   1705      1     18      5      0.4798          0.6804E+06
   1706      1     18      6      0.4730          0.6804E+06
   1707      1     18      7      0.4644          0.6804E+06
   1708      1     18      8      0.4516          0.6804E+06
   1709      1     18      9      0.4319          0.6804E+06
   1710      1     18     10      0.4020          0.6804E+06
   1711      1     18     11      0.3718          0.6804E+06
   1712      1     18     12      0.3362          0.6804E+06
   1713      1     18     13      0.3032          0.6804E+06
   1714      1     18     14      0.2818          0.6804E+06
   1715      1     18     15      0.2638          0.6804E+06
   1716      1     18     16      0.2494          0.6804E+06
   1717      1     18     17      0.2333          0.6804E+06
   1718      1     18     18      0.2170          0.6804E+06
   1719      1     18     19      0.2027          0.6804E+06
   1720      1     18     20      0.1862          0.6804E+06
   1721      1     18     21      0.1691          0.6804E+06
   1722      1     18     22      0.1541          0.6804E+06
   1723      1     18     23      0.1371          0.6804E+06
   1724      1     18     24      0.1224          0.6804E+06
   1725      1     18     25      0.1077          0.6804E+06
   1726      1     18     26      0.9683E-01      0.6804E+06
   1727      1     18     27      0.9037E-01      0.6804E+06
   1728      1     18     28      0.8722E-01      0.6804E+06
   1729      1     18     29      0.8822E-01      0.6804E+06
   1730      1     18     30      0.9017E-01      0.6804E+06
   1731      1     18     31      0.9450E-01      0.6804E+06
   1732      1     18     32      0.1004          0.6804E+06
   1733      1     18     33      0.1067          0.6804E+06
   1734      1     18     34      0.1114          0.6804E+06
   1735      1     18     35      0.1126          0.6804E+06
   1736      1     18     36      0.1102          0.6804E+06
   1737      1     18     37      0.1052          0.6804E+06
   1738      1     18     38      0.1062          0.6804E+06
   1739      1     18     39      0.1093          0.6804E+06
   1740      1     18     40      0.1112          0.6804E+06
   1741      1     18     41      0.1112          0.6804E+06
   1742      1     18     42      0.1096          0.6804E+06
   1743      1     18     43      0.1083          0.6804E+06
   1744      1     18     44      0.1079          0.6804E+06
   1745      1     18     45      0.1090          0.6804E+06
   1746      1     18     46      0.1104          0.6804E+06
   1747      1     18     47      0.1104          0.6804E+06
   1748      1     18     48      0.1092          0.6804E+06
   1749      1     18     49      0.1066          0.6804E+06
   1750      1     18     50      0.1047          0.6804E+06
   1751      1     18     51      0.1038          0.6804E+06
   1752      1     18     52      0.1026          0.6804E+06
   1753      1     18     53      0.1007          0.6804E+06
   1754      1     18     54      0.9736E-01      0.6804E+06
   1755      1     18     55      0.9312E-01      0.6804E+06
   1756      1     18     56      0.8958E-01      0.6804E+06
   1757      1     18     57      0.8681E-01      0.6804E+06
   1758      1     18     58      0.8607E-01      0.6804E+06
   1759      1     18     59      0.8470E-01      0.6804E+06
   1760      1     18     60      0.8208E-01      0.6804E+06
   1761      1     18     61      0.7980E-01      0.6804E+06
   1762      1     18     62      0.7801E-01      0.6804E+06
   1763      1     18     63      0.7614E-01      0.6804E+06
   1764      1     18     64      0.7453E-01      0.6804E+06
   1765      1     18     65      0.7158E-01      0.6804E+06
   1766      1     18     66      0.6652E-01      0.6804E+06
   1767      1     18     67      0.6196E-01      0.6804E+06
   1768      1     18     68      0.5659E-01      0.6804E+06
   1769      1     18     69      0.5138E-01      0.6804E+06
   1770      1     18     70      0.4482E-01      0.6804E+06
   1771      1     18     71      0.3818E-01      0.6804E+06
   1772      1     18     72      0.3179E-01      0.6804E+06
   1773      1     18     73      0.2190E-01      0.6804E+06
   1774      1     18     74      0.1020E-01      0.6804E+06
   1775      1     18     75      0.1296E-02      0.6804E+06
   1776      1     18     76       0.000          0.6804E+06
   1777      1     18     77       0.000          0.6804E+06
   1778      1     18     78     -0.3925E-01      0.6804E+06
   1779      1     18     79     -0.5736E-01      0.6804E+06
   1780      1     18     80     -0.6973E-01      0.6804E+06
   1781      1     18     81     -0.8366E-01      0.6804E+06
   1782      1     18     82     -0.9921E-01      0.6804E+06
   1783      1     18     83     -0.1082          0.6804E+06
   1784      1     18     84     -0.1187          0.6804E+06
   1785      1     18     85     -0.1239          0.6804E+06
   1786      1     18     86     -0.1364          0.6804E+06
   1787      1     18     87     -0.1754          0.6804E+06
   1788      1     18     88     -0.1704          0.6804E+06
   1789      1     18     89     -0.1120          0.6804E+06
   1790      1     18     90     -0.7852E-01      0.6804E+06
   1791      1     18     91     -0.5010E-01      0.6804E+06
   1792      1     18     92     -0.1938E-01      0.6804E+06
   1793      1     18     93      0.1274E-01      0.6804E+06
   1794      1     18     94      0.3358E-01      0.6804E+06
   1795      1     18     95      0.4648E-01      0.6804E+06
   1796      1     18     96      0.5397E-01      0.6804E+06
   1797      1     18     97      0.5858E-01      0.6804E+06
   1798      1     18     98      0.6146E-01      0.6804E+06
   1799      1     18     99      0.6370E-01      0.6804E+06
   1800      1     18    100      0.6368E-01      0.6804E+06
   1801      1     19      1      0.5176          0.6804E+06
   1802      1     19      2      0.5056          0.6804E+06
   1803      1     19      3      0.4941          0.6804E+06
   1804      1     19      4      0.4822          0.6804E+06
   1805      1     19      5      0.4725          0.6804E+06
   1806      1     19      6      0.4650          0.6804E+06
   1807      1     19      7      0.4553          0.6804E+06
   1808      1     19      8      0.4415          0.6804E+06
   1809      1     19      9      0.4239          0.6804E+06
   1810      1     19     10      0.3986          0.6804E+06
   1811      1     19     11      0.3731          0.6804E+06
   1812      1     19     12      0.3424          0.6804E+06
   1813      1     19     13      0.3132          0.6804E+06
   1814      1     19     14      0.2912          0.6804E+06
   1815      1     19     15      0.2694          0.6804E+06
   1816      1     19     16      0.2516          0.6804E+06
   1817      1     19     17      0.2320          0.6804E+06
   1818      1     19     18      0.2130          0.6804E+06
   1819      1     19     19      0.1969          0.6804E+06
   1820      1     19     20      0.1786          0.6804E+06
   1821      1     19     21      0.1591          0.6804E+06
   1822      1     19     22      0.1416          0.6804E+06
   1823      1     19     23      0.1216          0.6804E+06
   1824      1     19     24      0.1042          0.6804E+06
   1825      1     19     25      0.8605E-01      0.6804E+06
   1826      1     19     26      0.7284E-01      0.6804E+06
   1827      1     19     27      0.6629E-01      0.6804E+06
   1828      1     19     28      0.6528E-01      0.6804E+06
   1829      1     19     29      0.6610E-01      0.6804E+06
   1830      1     19     30      0.6813E-01      0.6804E+06
   1831      1     19     31      0.7319E-01      0.6804E+06
   1832      1     19     32      0.8027E-01      0.6804E+06
   1833      1     19     33      0.8782E-01      0.6804E+06
   1834      1     19     34      0.9142E-01      0.6804E+06
   1835      1     19     35      0.9206E-01      0.6804E+06
   1836      1     19     36      0.9011E-01      0.6804E+06
   1837      1     19     37      0.8604E-01      0.6804E+06
   1838      1     19     38      0.8684E-01      0.6804E+06
   1839      1     19     39      0.9017E-01      0.6804E+06
   1840      1     19     40      0.9291E-01      0.6804E+06
   1841      1     19     41      0.9369E-01      0.6804E+06
   1842      1     19     42      0.9127E-01      0.6804E+06
   1843      1     19     43      0.9041E-01      0.6804E+06
   1844      1     19     44      0.9178E-01      0.6804E+06
   1845      1     19     45      0.9528E-01      0.6804E+06
   1846      1     19     46      0.9760E-01      0.6804E+06
   1847      1     19     47      0.9823E-01      0.6804E+06
   1848      1     19     48      0.9748E-01      0.6804E+06
   1849      1     19     49      0.9529E-01      0.6804E+06
   1850      1     19     50      0.9284E-01      0.6804E+06
   1851      1     19     51      0.9261E-01      0.6804E+06
   1852      1     19     52      0.9243E-01      0.6804E+06
   1853      1     19     53      0.9105E-01      0.6804E+06
   1854      1     19     54      0.8836E-01      0.6804E+06
   1855      1     19     55      0.8527E-01      0.6804E+06
   1856      1     19     56      0.8289E-01      0.6804E+06
   1857      1     19     57      0.8097E-01      0.6804E+06
   1858      1     19     58      0.7977E-01      0.6804E+06
   1859      1     19     59      0.7843E-01      0.6804E+06
   1860      1     19     60      0.7613E-01      0.6804E+06
   1861      1     19     61      0.7399E-01      0.6804E+06
   1862      1     19     62      0.7179E-01      0.6804E+06
   1863      1     19     63      0.6910E-01      0.6804E+06
   1864      1     19     64      0.6662E-01      0.6804E+06
   1865      1     19     65      0.6244E-01      0.6804E+06
   1866      1     19     66      0.5576E-01      0.6804E+06
   1867      1     19     67      0.4981E-01      0.6804E+06
   1868      1     19     68      0.4356E-01      0.6804E+06
   1869      1     19     69      0.3713E-01      0.6804E+06
   1870      1     19     70      0.2787E-01      0.6804E+06
   1871      1     19     71      0.1825E-01      0.6804E+06
   1872      1     19     72      0.1143E-01      0.6804E+06
   1873      1     19     73       0.000          0.6804E+06
   1874      1     19     74       0.000          0.6804E+06
   1875      1     19     75       0.000          0.6804E+06
   1876      1     19     76     -0.4811E-01      0.6804E+06
   1877      1     19     77     -0.6180E-01      0.6804E+06
   1878      1     19     78     -0.7619E-01      0.6804E+06
   1879      1     19     79     -0.8926E-01      0.6804E+06
   1880      1     19     80     -0.9948E-01      0.6804E+06
   1881      1     19     81     -0.1092          0.6804E+06
   1882      1     19     82     -0.1171          0.6804E+06
   1883      1     19     83     -0.1248          0.6804E+06
   1884      1     19     84     -0.1330          0.6804E+06
   1885      1     19     85     -0.1743          0.6804E+06
   1886      1     19     86     -0.1870          0.6804E+06
   1887      1     19     87     -0.1366          0.6804E+06
   1888      1     19     88     -0.9559E-01      0.6804E+06
   1889      1     19     89     -0.5371E-01      0.6804E+06
   1890      1     19     90     -0.3088E-01      0.6804E+06
   1891      1     19     91       0.000          0.6804E+06
   1892      1     19     92      0.6593E-02      0.6804E+06
   1893      1     19     93      0.2592E-01      0.6804E+06
   1894      1     19     94      0.4330E-01      0.6804E+06
   1895      1     19     95      0.5508E-01      0.6804E+06
   1896      1     19     96      0.6197E-01      0.6804E+06
   1897      1     19     97      0.6685E-01      0.6804E+06
   1898      1     19     98      0.6967E-01      0.6804E+06
   1899      1     19     99      0.7151E-01      0.6804E+06
   1900      1     19    100      0.7148E-01      0.6804E+06
   1901      1     20      1      0.5212          0.6804E+06
   1902      1     20      2      0.5070          0.6804E+06
   1903      1     20      3      0.4923          0.6804E+06
   1904      1     20      4      0.4771          0.6804E+06
   1905      1     20      5      0.4665          0.6804E+06
   1906      1     20      6      0.4589          0.6804E+06
   1907      1     20      7      0.4486          0.6804E+06
   1908      1     20      8      0.4348          0.6804E+06
   1909      1     20      9      0.4189          0.6804E+06
   1910      1     20     10      0.3970          0.6804E+06
   1911      1     20     11      0.3752          0.6804E+06
   1912      1     20     12      0.3487          0.6804E+06
   1913      1     20     13      0.3223          0.6804E+06
   1914      1     20     14      0.3000          0.6804E+06
   1915      1     20     15      0.2755          0.6804E+06
   1916      1     20     16      0.2546          0.6804E+06
   1917      1     20     17      0.2317          0.6804E+06
   1918      1     20     18      0.2100          0.6804E+06
   1919      1     20     19      0.1921          0.6804E+06
   1920      1     20     20      0.1726          0.6804E+06
   1921      1     20     21      0.1514          0.6804E+06
   1922      1     20     22      0.1320          0.6804E+06
   1923      1     20     23      0.1095          0.6804E+06
   1924      1     20     24      0.8968E-01      0.6804E+06
   1925      1     20     25      0.6781E-01      0.6804E+06
   1926      1     20     26      0.5087E-01      0.6804E+06
   1927      1     20     27      0.4460E-01      0.6804E+06
   1928      1     20     28      0.4977E-01      0.6804E+06
   1929      1     20     29      0.4771E-01      0.6804E+06
   1930      1     20     30      0.4847E-01      0.6804E+06
   1931      1     20     31      0.5406E-01      0.6804E+06
   1932      1     20     32      0.6286E-01      0.6804E+06
   1933      1     20     33      0.7250E-01      0.6804E+06
   1934      1     20     34      0.7727E-01      0.6804E+06
   1935      1     20     35      0.7922E-01      0.6804E+06
   1936      1     20     36      0.7916E-01      0.6804E+06
   1937      1     20     37      0.7646E-01      0.6804E+06
   1938      1     20     38      0.7621E-01      0.6804E+06
   1939      1     20     39      0.7841E-01      0.6804E+06
   1940      1     20     40      0.8075E-01      0.6804E+06
   1941      1     20     41      0.8079E-01      0.6804E+06
   1942      1     20     42      0.7755E-01      0.6804E+06
   1943      1     20     43      0.7669E-01      0.6804E+06
   1944      1     20     44      0.7909E-01      0.6804E+06
   1945      1     20     45      0.8425E-01      0.6804E+06
   1946      1     20     46      0.8734E-01      0.6804E+06
   1947      1     20     47      0.8883E-01      0.6804E+06
   1948      1     20     51      0.8471E-01      0.6804E+06
   1949      1     20     52      0.8441E-01      0.6804E+06
   1950      1     20     53      0.8326E-01      0.6804E+06
   1951      1     20     54      0.8101E-01      0.6804E+06
   1952      1     20     55      0.7882E-01      0.6804E+06
   1953      1     20     56      0.7735E-01      0.6804E+06
   1954      1     20     57      0.7594E-01      0.6804E+06
   1955      1     20     58      0.7366E-01      0.6804E+06
   1956      1     20     59      0.7195E-01      0.6804E+06
   1957      1     20     60      0.6980E-01      0.6804E+06
   1958      1     20     61      0.6777E-01      0.6804E+06
   1959      1     20     62      0.6493E-01      0.6804E+06
   1960      1     20     63      0.6146E-01      0.6804E+06
   1961      1     20     64      0.5748E-01      0.6804E+06
   1962      1     20     65      0.5119E-01      0.6804E+06
   1963      1     20     66      0.4242E-01      0.6804E+06
   1964      1     20     67      0.3469E-01      0.6804E+06
   1965      1     20     68      0.2779E-01      0.6804E+06
   1966      1     20     69      0.2071E-01      0.6804E+06
   1967      1     20     70      0.9427E-02      0.6804E+06
   1968      1     20     71       0.000          0.6804E+06
   1969      1     20     72       0.000          0.6804E+06
   1970      1     20     73       0.000          0.6804E+06
   1971      1     20     74     -0.5225E-01      0.6804E+06
   1972      1     20     75     -0.6646E-01      0.6804E+06
   1973      1     20     76     -0.8003E-01      0.6804E+06
   1974      1     20     77     -0.8980E-01      0.6804E+06
   1975      1     20     78     -0.9913E-01      0.6804E+06
   1976      1     20     79     -0.1119          0.6804E+06
   1977      1     20     80     -0.1193          0.6804E+06
   1978      1     20     81     -0.1278          0.6804E+06
   1979      1     20     82     -0.1351          0.6804E+06
   1980      1     20     83     -0.1553          0.6804E+06
   1981      1     20     84     -0.1670          0.6804E+06
   1982      1     20     85     -0.1711          0.6804E+06
   1983      1     20     86     -0.1401          0.6804E+06
   1984      1     20     87     -0.9201E-01      0.6804E+06
   1985      1     20     88     -0.5229E-01      0.6804E+06
   1986      1     20     89       0.000          0.6804E+06
   1987      1     20     90       0.000          0.6804E+06
   1988      1     20     91      0.7465E-02      0.6804E+06
   1989      1     20     92      0.2308E-01      0.6804E+06
   1990      1     20     93      0.3655E-01      0.6804E+06
   1991      1     20     94      0.4974E-01      0.6804E+06
   1992      1     20     95      0.5962E-01      0.6804E+06
   1993      1     20     96      0.6572E-01      0.6804E+06
   1994      1     20     97      0.7040E-01      0.6804E+06
   1995      1     20     98      0.7301E-01      0.6804E+06
   1996      1     20     99      0.7457E-01      0.6804E+06
   1997      1     20    100      0.7499E-01      0.6804E+06
   1998      1     21      1      0.5283          0.6804E+06
   1999      1     21      2      0.5123          0.6804E+06
   2000      1     21      3      0.4940          0.6804E+06
   2001      1     21      4      0.4748          0.6804E+06
   2002      1     21      5      0.4628          0.6804E+06
   2003      1     21      6      0.4548          0.6804E+06
   2004      1     21      7      0.4436          0.6804E+06
   2005      1     21      8      0.4298          0.6804E+06
   2006      1     21      9      0.4154          0.6804E+06
   2007      1     21     10      0.3965          0.6804E+06
   2008      1     21     11      0.3781          0.6804E+06
   2009      1     21     12      0.3558          0.6804E+06
   2010      1     21     13      0.3322          0.6804E+06
   2011      1     21     14      0.3099          0.6804E+06
   2012      1     21     15      0.2825          0.6804E+06
   2013      1     21     16      0.2579          0.6804E+06
   2014      1     21     17      0.2310          0.6804E+06
   2015      1     21     18      0.2059          0.6804E+06
   2016      1     21     19      0.1857          0.6804E+06
   2017      1     21     20      0.1643          0.6804E+06
   2018      1     21     21      0.1420          0.6804E+06
   2019      1     21     22      0.1219          0.6804E+06
   2020      1     21     23      0.9860E-01      0.6804E+06
   2021      1     21     24      0.7769E-01      0.6804E+06
   2022      1     21     25      0.5323E-01      0.6804E+06
   2023      1     21     26      0.2662E-01      0.6804E+06
   2024      1     21     27      0.1951E-01      0.6804E+06
   2025      1     21     28      0.4433E-01      0.6804E+06
   2026      1     21     29      0.2549E-01      0.6804E+06
   2027      1     21     30      0.2099E-01      0.6804E+06
   2028      1     21     31      0.2971E-01      0.6804E+06
   2029      1     21     32      0.4322E-01      0.6804E+06
   2030      1     21     33      0.5650E-01      0.6804E+06
   2031      1     21     34      0.6593E-01      0.6804E+06
   2032      1     21     35      0.7071E-01      0.6804E+06
   2033      1     21     36      0.7173E-01      0.6804E+06
   2034      1     21     37      0.6967E-01      0.6804E+06
   2035      1     21     38      0.6856E-01      0.6804E+06
   2036      1     21     39      0.6954E-01      0.6804E+06
   2037      1     21     40      0.7109E-01      0.6804E+06
   2038      1     21     41      0.6987E-01      0.6804E+06
   2039      1     21     56      0.6843E-01      0.6804E+06
   2040      1     21     57      0.6701E-01      0.6804E+06
   2041      1     21     58      0.6502E-01      0.6804E+06
   2042      1     21     59      0.6282E-01      0.6804E+06
   2043      1     21     60      0.5955E-01      0.6804E+06
   2044      1     21     61      0.5637E-01      0.6804E+06
   2045      1     21     62      0.5239E-01      0.6804E+06
   2046      1     21     63      0.4805E-01      0.6804E+06
   2047      1     21     64      0.4269E-01      0.6804E+06
   2048      1     21     65      0.3382E-01      0.6804E+06
   2049      1     21     66      0.2187E-01      0.6804E+06
   2050      1     21     67      0.1296E-01      0.6804E+06
   2051      1     21     68      0.5722E-02      0.6804E+06
   2052      1     21     69       0.000          0.6804E+06
   2053      1     21     70       0.000          0.6804E+06
   2054      1     21     71       0.000          0.6804E+06
   2055      1     21     72     -0.5984E-01      0.6804E+06
   2056      1     21     73     -0.7586E-01      0.6804E+06
   2057      1     21     74     -0.8862E-01      0.6804E+06
   2058      1     21     75     -0.9608E-01      0.6804E+06
   2059      1     21     76     -0.1089          0.6804E+06
   2060      1     21     77     -0.1181          0.6804E+06
   2061      1     21     78     -0.1232          0.6804E+06
   2062      1     21     79     -0.1322          0.6804E+06
   2063      1     21     80     -0.1400          0.6804E+06
   2064      1     21     81     -0.1672          0.6804E+06
   2065      1     21     82     -0.2166          0.6804E+06
   2066      1     21     83     -0.2055          0.6804E+06
   2067      1     21     84     -0.1453          0.6804E+06
   2068      1     21     85     -0.1382          0.6804E+06
   2069      1     21     86     -0.8910E-01      0.6804E+06
   2070      1     21     87     -0.4775E-01      0.6804E+06
   2071      1     21     88       0.000          0.6804E+06
   2072      1     21     89       0.000          0.6804E+06
   2073      1     21     90      0.1509E-01      0.6804E+06
   2074      1     21     91      0.2457E-01      0.6804E+06
   2075      1     21     92      0.3599E-01      0.6804E+06
   2076      1     21     93      0.4528E-01      0.6804E+06
   2077      1     21     94      0.5461E-01      0.6804E+06
   2078      1     21     95      0.6213E-01      0.6804E+06
   2079      1     21     96      0.6685E-01      0.6804E+06
   2080      1     21     97      0.7109E-01      0.6804E+06
   2081      1     21     98      0.7354E-01      0.6804E+06
   2082      1     21     99      0.7491E-01      0.6804E+06
   2083      1     21    100      0.7587E-01      0.6804E+06
   2084      1     22      1      0.5397          0.6804E+06
   2085      1     22      2      0.5251          0.6804E+06
   2086      1     22      3      0.5058          0.6804E+06
   2087      1     22      4      0.4843          0.6804E+06
   2088      1     22      5      0.4680          0.6804E+06
   2089      1     22      6      0.4561          0.6804E+06
   2090      1     22      7      0.4421          0.6804E+06
   2091      1     22      8      0.4279          0.6804E+06
   2092      1     22      9      0.4141          0.6804E+06
   2093      1     22     10      0.3970          0.6804E+06
   2094      1     22     11      0.3808          0.6804E+06
   2095      1     22     12      0.3618          0.6804E+06
   2096      1     22     13      0.3414          0.6804E+06
   2097      1     22     14      0.3195          0.6804E+06
   2098      1     22     15      0.2880          0.6804E+06
   2099      1     22     16      0.2597          0.6804E+06
   2100      1     22     17      0.2289          0.6804E+06
   2101      1     22     18      0.2005          0.6804E+06
   2102      1     22     19      0.1781          0.6804E+06
   2103      1     22     20      0.1552          0.6804E+06
   2104      1     22     21      0.1331          0.6804E+06
   2105      1     22     22      0.1138          0.6804E+06
   2106      1     22     23      0.9152E-01      0.6804E+06
   2107      1     22     24      0.7177E-01      0.6804E+06
   2108      1     22     25      0.5003E-01      0.6804E+06
   2109      1     22     26      0.3170E-01      0.6804E+06
   2110      1     22     27      0.1332E-01      0.6804E+06
   2111      1     22     28      0.2628E-01      0.6804E+06
   2112      1     22     29       0.000          0.6804E+06
   2113      1     22     30       0.000          0.6804E+06
   2114      1     22     31      0.1089E-01      0.6804E+06
   2115      1     22     32      0.3030E-01      0.6804E+06
   2116      1     22     33      0.4736E-01      0.6804E+06
   2117      1     22     34      0.5962E-01      0.6804E+06
   2118      1     22     35      0.6580E-01      0.6804E+06
   2119      1     22     36      0.6719E-01      0.6804E+06
   2120      1     22     37      0.6602E-01      0.6804E+06
   2121      1     22     38      0.6520E-01      0.6804E+06
   2122      1     22     39      0.6522E-01      0.6804E+06
   2123      1     22     40      0.6541E-01      0.6804E+06
   2124      1     22     58      0.5167E-01      0.6804E+06
   2125      1     22     59      0.4858E-01      0.6804E+06
   2126      1     22     60      0.4324E-01      0.6804E+06
   2127      1     22     61      0.3784E-01      0.6804E+06
   2128      1     22     62      0.3180E-01      0.6804E+06
   2129      1     22     63      0.2760E-01      0.6804E+06
   2130      1     22     64      0.2118E-01      0.6804E+06
   2131      1     22     65      0.1040E-01      0.6804E+06
   2132      1     22     66       0.000          0.6804E+06
   2133      1     22     67       0.000          0.6804E+06
   2134      1     22     68       0.000          0.6804E+06
   2135      1     22     69     -0.5388E-01      0.6804E+06
   2136      1     22     70     -0.7121E-01      0.6804E+06
   2137      1     22     71     -0.8543E-01      0.6804E+06
   2138      1     22     72     -0.9678E-01      0.6804E+06
   2139      1     22     73     -0.1098          0.6804E+06
   2140      1     22     74     -0.1186          0.6804E+06
   2141      1     22     75     -0.1246          0.6804E+06
   2142      1     22     76     -0.1308          0.6804E+06
   2143      1     22     77     -0.1319          0.6804E+06
   2144      1     22     78     -0.1394          0.6804E+06
   2145      1     22     79     -0.1773          0.6804E+06
   2146      1     22     80     -0.2159          0.6804E+06
   2147      1     22     81     -0.1942          0.6804E+06
   2148      1     22     82     -0.1955          0.6804E+06
   2149      1     22     83     -0.1474          0.6804E+06
   2150      1     22     84     -0.1060          0.6804E+06
   2151      1     22     85     -0.6993E-01      0.6804E+06
   2152      1     22     86       0.000          0.6804E+06
   2153      1     22     87       0.000          0.6804E+06
   2154      1     22     88       0.000          0.6804E+06
   2155      1     22     89      0.1211E-01      0.6804E+06
   2156      1     22     90      0.2588E-01      0.6804E+06
   2157      1     22     91      0.3478E-01      0.6804E+06
   2158      1     22     92      0.4396E-01      0.6804E+06
   2159      1     22     93      0.5101E-01      0.6804E+06
   2160      1     22     94      0.5786E-01      0.6804E+06
   2161      1     22     95      0.6308E-01      0.6804E+06
   2162      1     22     96      0.6635E-01      0.6804E+06
   2163      1     22     97      0.6944E-01      0.6804E+06
   2164      1     22     98      0.7140E-01      0.6804E+06
   2165      1     22     99      0.7274E-01      0.6804E+06
   2166      1     22    100      0.7385E-01      0.6804E+06
   2167      1     23      1      0.5520          0.6804E+06
   2168      1     23      2      0.5408          0.6804E+06
   2169      1     23      3      0.5202          0.6804E+06
   2170      1     23      4      0.4966          0.6804E+06
   2171      1     23      5      0.4765          0.6804E+06
   2172      1     23      6      0.4610          0.6804E+06
   2173      1     23      7      0.4440          0.6804E+06
   2174      1     23      8      0.4285          0.6804E+06
   2175      1     23      9      0.4144          0.6804E+06
   2176      1     23     10      0.3974          0.6804E+06
   2177      1     23     11      0.3819          0.6804E+06
   2178      1     23     12      0.3644          0.6804E+06
   2179      1     23     13      0.3474          0.6804E+06
   2180      1     23     14      0.3260          0.6804E+06
   2181      1     23     15      0.2897          0.6804E+06
   2182      1     23     16      0.2587          0.6804E+06
   2183      1     23     17      0.2254          0.6804E+06
   2184      1     23     18      0.1947          0.6804E+06
   2185      1     23     19      0.1708          0.6804E+06
   2186      1     23     20      0.1478          0.6804E+06
   2187      1     23     21      0.1265          0.6804E+06
   2188      1     23     22      0.1084          0.6804E+06
   2189      1     23     23      0.8793E-01      0.6804E+06
   2190      1     23     24      0.7006E-01      0.6804E+06
   2191      1     23     25      0.5140E-01      0.6804E+06
   2192      1     23     26      0.3883E-01      0.6804E+06
   2193      1     23     27      0.2785E-01      0.6804E+06
   2194      1     23     28       0.000          0.6804E+06
   2195      1     23     29       0.000          0.6804E+06
   2196      1     23     30       0.000          0.6804E+06
   2197      1     23     31      0.9357E-02      0.6804E+06
   2198      1     23     32      0.2478E-01      0.6804E+06
   2199      1     23     33      0.4210E-01      0.6804E+06
   2200      1     23     34      0.5482E-01      0.6804E+06
   2201      1     23     35      0.6166E-01      0.6804E+06
   2202      1     23     36      0.6455E-01      0.6804E+06
   2203      1     23     37      0.6526E-01      0.6804E+06
   2204      1     23     38      0.6508E-01      0.6804E+06
   2205      1     23     59      0.3087E-01      0.6804E+06
   2206      1     23     60      0.2388E-01      0.6804E+06
   2207      1     23     61      0.1734E-01      0.6804E+06
   2208      1     23     62      0.9759E-02      0.6804E+06
   2209      1     23     63      0.3691E-04      0.6804E+06
   2210      1     23     64       0.000          0.6804E+06
   2211      1     23     65       0.000          0.6804E+06
   2212      1     23     66       0.000          0.6804E+06
   2213      1     23     67     -0.6429E-01      0.6804E+06
   2214      1     23     68     -0.7789E-01      0.6804E+06
   2215      1     23     69     -0.8895E-01      0.6804E+06
   2216      1     23     70     -0.9971E-01      0.6804E+06
   2217      1     23     71     -0.1150          0.6804E+06
   2218      1     23     72     -0.1293          0.6804E+06
   2219      1     23     73     -0.1382          0.6804E+06
   2220      1     23     74     -0.1395          0.6804E+06
   2221      1     23     75     -0.1378          0.6804E+06
   2222      1     23     76     -0.1377          0.6804E+06
   2223      1     23     77     -0.1564          0.6804E+06
   2224      1     23     78     -0.1950          0.6804E+06
   2225      1     23     79     -0.2110          0.6804E+06
   2226      1     23     80     -0.1932          0.6804E+06
   2227      1     23     81     -0.1496          0.6804E+06
   2228      1     23     82     -0.1241          0.6804E+06
   2229      1     23     83     -0.1013          0.6804E+06
   2230      1     23     84     -0.5873E-01      0.6804E+06
   2231      1     23     85       0.000          0.6804E+06
   2232      1     23     86       0.000          0.6804E+06
   2233      1     23     87       0.000          0.6804E+06
   2234      1     23     88      0.6357E-02      0.6804E+06
   2235      1     23     89      0.2101E-01      0.6804E+06
   2236      1     23     90      0.3282E-01      0.6804E+06
   2237      1     23     91      0.4095E-01      0.6804E+06
   2238      1     23     92      0.4867E-01      0.6804E+06
   2239      1     23     93      0.5437E-01      0.6804E+06
   2240      1     23     94      0.5959E-01      0.6804E+06
   2241      1     23     95      0.6295E-01      0.6804E+06
   2242      1     23     96      0.6479E-01      0.6804E+06
   2243      1     23     97      0.6647E-01      0.6804E+06
   2244      1     23     98      0.6781E-01      0.6804E+06
   2245      1     23     99      0.6939E-01      0.6804E+06
   2246      1     23    100      0.7081E-01      0.6804E+06
   2247      1     24      1      0.5624          0.6804E+06
   2248      1     24      2      0.5533          0.6804E+06
   2249      1     24      3      0.5331          0.6804E+06
   2250      1     24      4      0.5089          0.6804E+06
   2251      1     24      5      0.4865          0.6804E+06
   2252      1     24      6      0.4684          0.6804E+06
   2253      1     24      7      0.4489          0.6804E+06
   2254      1     24      8      0.4311          0.6804E+06
   2255      1     24      9      0.4154          0.6804E+06
   2256      1     24     10      0.3970          0.6804E+06
   2257      1     24     11      0.3804          0.6804E+06
   2258      1     24     12      0.3613          0.6804E+06
   2259      1     24     13      0.3411          0.6804E+06
   2260      1     24     14      0.3183          0.6804E+06
   2261      1     24     15      0.2838          0.6804E+06
   2262      1     24     16      0.2530          0.6804E+06
   2263      1     24     17      0.2191          0.6804E+06
   2264      1     24     18      0.1875          0.6804E+06
   2265      1     24     19      0.1630          0.6804E+06
   2266      1     24     20      0.1408          0.6804E+06
   2267      1     24     21      0.1210          0.6804E+06
   2268      1     24     22      0.1045          0.6804E+06
   2269      1     24     23      0.8624E-01      0.6804E+06
   2270      1     24     24      0.7046E-01      0.6804E+06
   2271      1     24     25      0.5300E-01      0.6804E+06
   2272      1     24     26      0.3452E-01      0.6804E+06
   2273      1     24     27      0.1671E-01      0.6804E+06
   2274      1     24     28       0.000          0.6804E+06
   2275      1     24     29       0.000          0.6804E+06
   2276      1     24     30       0.000          0.6804E+06
   2277      1     24     31      0.8186E-02      0.6804E+06
   2278      1     24     32      0.2327E-01      0.6804E+06
   2279      1     24     33      0.3770E-01      0.6804E+06
   2280      1     24     34      0.4867E-01      0.6804E+06
   2281      1     24     35      0.5470E-01      0.6804E+06
   2282      1     24     36      0.5938E-01      0.6804E+06
   2283      1     24     37      0.6178E-01      0.6804E+06
   2284      1     24     59      0.2941E-02      0.6804E+06
   2285      1     24     60       0.000          0.6804E+06
   2286      1     24     61       0.000          0.6804E+06
   2287      1     24     62       0.000          0.6804E+06
   2288      1     24     63       0.000          0.6804E+06
   2289      1     24     64     -0.6944E-01      0.6804E+06
   2290      1     24     65     -0.8212E-01      0.6804E+06
   2291      1     24     66     -0.9335E-01      0.6804E+06
   2292      1     24     67     -0.1019          0.6804E+06
   2293      1     24     68     -0.1167          0.6804E+06
   2294      1     24     69     -0.1275          0.6804E+06
   2295      1     24     70     -0.1398          0.6804E+06
   2296      1     24     71     -0.1495          0.6804E+06
   2297      1     24     72     -0.1539          0.6804E+06
   2298      1     24     73     -0.1523          0.6804E+06
   2299      1     24     74     -0.1554          0.6804E+06
   2300      1     24     75     -0.1661          0.6804E+06
   2301      1     24     76     -0.1933          0.6804E+06
   2302      1     24     77     -0.1703          0.6804E+06
   2303      1     24     78     -0.1617          0.6804E+06
   2304      1     24     79     -0.1706          0.6804E+06
   2305      1     24     80     -0.1427          0.6804E+06
   2306      1     24     81     -0.1124          0.6804E+06
   2307      1     24     82     -0.9734E-01      0.6804E+06
   2308      1     24     83     -0.6116E-01      0.6804E+06
   2309      1     24     84       0.000          0.6804E+06
   2310      1     24     85       0.000          0.6804E+06
   2311      1     24     86       0.000          0.6804E+06
   2312      1     24     87      0.2322E-02      0.6804E+06
   2313      1     24     88      0.1604E-01      0.6804E+06
   2314      1     24     89      0.2915E-01      0.6804E+06
   2315      1     24     90      0.3942E-01      0.6804E+06
   2316      1     24     91      0.4656E-01      0.6804E+06
   2317      1     24     92      0.5278E-01      0.6804E+06
   2318      1     24     93      0.5706E-01      0.6804E+06
   2319      1     24     94      0.6060E-01      0.6804E+06
   2320      1     24     95      0.6215E-01      0.6804E+06
   2321      1     24     96      0.6236E-01      0.6804E+06
   2322      1     24     97      0.6226E-01      0.6804E+06
   2323      1     24     98      0.6281E-01      0.6804E+06
   2324      1     24     99      0.6511E-01      0.6804E+06
   2325      1     24    100      0.6697E-01      0.6804E+06
   2326      1     25      1      0.5653          0.6804E+06
   2327      1     25      2      0.5549          0.6804E+06
   2328      1     25      3      0.5380          0.6804E+06
   2329      1     25      4      0.5159          0.6804E+06
   2330      1     25      5      0.4937          0.6804E+06
   2331      1     25      6      0.4749          0.6804E+06
   2332      1     25      7      0.4542          0.6804E+06
   2333      1     25      8      0.4340          0.6804E+06
   2334      1     25      9      0.4163          0.6804E+06
   2335      1     25     10      0.3957          0.6804E+06
   2336      1     25     11      0.3771          0.6804E+06
   2337      1     25     12      0.3553          0.6804E+06
   2338      1     25     13      0.3314          0.6804E+06
   2339      1     25     14      0.3072          0.6804E+06
   2340      1     25     15      0.2747          0.6804E+06
   2341      1     25     16      0.2452          0.6804E+06
   2342      1     25     17      0.2125          0.6804E+06
   2343      1     25     18      0.1819          0.6804E+06
   2344      1     25     19      0.1584          0.6804E+06
   2345      1     25     20      0.1368          0.6804E+06
   2346      1     25     21      0.1181          0.6804E+06
   2347      1     25     22      0.1030          0.6804E+06
   2348      1     25     23      0.8645E-01      0.6804E+06
   2349      1     25     24      0.7199E-01      0.6804E+06
   2350      1     25     25      0.5572E-01      0.6804E+06
   2351      1     25     26      0.3935E-01      0.6804E+06
   2352      1     25     27      0.2706E-01      0.6804E+06
   2353      1     25     28      0.1401E-01      0.6804E+06
   2354      1     25     29       0.000          0.6804E+06
   2355      1     25     30       0.000          0.6804E+06
   2356      1     25     31       0.000          0.6804E+06
   2357      1     25     32      0.1571E-01      0.6804E+06
   2358      1     25     33      0.3252E-01      0.6804E+06
   2359      1     25     34      0.3917E-01      0.6804E+06
   2360      1     25     35      0.4461E-01      0.6804E+06
   2361      1     25     36      0.5089E-01      0.6804E+06
   2362      1     25     60     -0.5845E-01      0.6804E+06
   2363      1     25     61     -0.6980E-01      0.6804E+06
   2364      1     25     62     -0.8115E-01      0.6804E+06
   2365      1     25     63     -0.9852E-01      0.6804E+06
   2366      1     25     64     -0.1112          0.6804E+06
   2367      1     25     65     -0.1245          0.6804E+06
   2368      1     25     66     -0.1429          0.6804E+06
   2369      1     25     67     -0.1540          0.6804E+06
   2370      1     25     68     -0.1563          0.6804E+06
   2371      1     25     69     -0.1533          0.6804E+06
   2372      1     25     70     -0.1554          0.6804E+06
   2373      1     25     71     -0.1575          0.6804E+06
   2374      1     25     72     -0.1625          0.6804E+06
   2375      1     25     73     -0.1936          0.6804E+06
   2376      1     25     74     -0.2176          0.6804E+06
   2377      1     25     75     -0.2075          0.6804E+06
   2378      1     25     76     -0.1673          0.6804E+06
   2379      1     25     77     -0.1284          0.6804E+06
   2380      1     25     78     -0.1172          0.6804E+06
   2381      1     25     79     -0.1462          0.6804E+06
   2382      1     25     80     -0.1218          0.6804E+06
   2383      1     25     81     -0.9369E-01      0.6804E+06
   2384      1     25     82     -0.6169E-01      0.6804E+06
   2385      1     25     83       0.000          0.6804E+06
   2386      1     25     84       0.000          0.6804E+06
   2387      1     25     85       0.000          0.6804E+06
   2388      1     25     86       0.000          0.6804E+06
   2389      1     25     87      0.1247E-01      0.6804E+06
   2390      1     25     88      0.2401E-01      0.6804E+06
   2391      1     25     89      0.3567E-01      0.6804E+06
   2392      1     25     90      0.4502E-01      0.6804E+06
   2393      1     25     91      0.5082E-01      0.6804E+06
   2394      1     25     92      0.5601E-01      0.6804E+06
   2395      1     25     93      0.5913E-01      0.6804E+06
   2396      1     25     94      0.6110E-01      0.6804E+06
   2397      1     25     95      0.6148E-01      0.6804E+06
   2398      1     25     96      0.6053E-01      0.6804E+06
   2399      1     25     97      0.5908E-01      0.6804E+06
   2400      1     25     98      0.5901E-01      0.6804E+06
   2401      1     25     99      0.6198E-01      0.6804E+06
   2402      1     25    100      0.6405E-01      0.6804E+06
   2403      1     26      1      0.5662          0.6804E+06
   2404      1     26      2      0.5547          0.6804E+06
   2405      1     26      3      0.5400          0.6804E+06
   2406      1     26      4      0.5203          0.6804E+06
   2407      1     26      5      0.4994          0.6804E+06
   2408      1     26      6      0.4808          0.6804E+06
   2409      1     26      7      0.4592          0.6804E+06
   2410      1     26      8      0.4370          0.6804E+06
   2411      1     26      9      0.4169          0.6804E+06
   2412      1     26     10      0.3932          0.6804E+06
   2413      1     26     11      0.3718          0.6804E+06
   2414      1     26     12      0.3464          0.6804E+06
   2415      1     26     13      0.3195          0.6804E+06
   2416      1     26     14      0.2940          0.6804E+06
   2417      1     26     15      0.2625          0.6804E+06
   2418      1     26     16      0.2345          0.6804E+06
   2419      1     26     17      0.2036          0.6804E+06
   2420      1     26     18      0.1750          0.6804E+06
   2421      1     26     19      0.1534          0.6804E+06
   2422      1     26     20      0.1329          0.6804E+06
   2423      1     26     21      0.1157          0.6804E+06
   2424      1     26     22      0.1024          0.6804E+06
   2425      1     26     23      0.8794E-01      0.6804E+06
   2426      1     26     24      0.7524E-01      0.6804E+06
   2427      1     26     25      0.6133E-01      0.6804E+06
   2428      1     26     26      0.4701E-01      0.6804E+06
   2429      1     26     27      0.3422E-01      0.6804E+06
   2430      1     26     28      0.2046E-01      0.6804E+06
   2431      1     26     29      0.3216E-02      0.6804E+06
   2432      1     26     30      0.6492E-02      0.6804E+06
   2433      1     26     31      0.1430E-01      0.6804E+06
   2434      1     26     32      0.1045E-01      0.6804E+06
   2435      1     26     33      0.1367E-01      0.6804E+06
   2436      1     26     34      0.2058E-01      0.6804E+06
   2437      1     26     35      0.2278E-01      0.6804E+06
   2438      1     26     36      0.3259E-01      0.6804E+06
   2439      1     26     60     -0.1136          0.6804E+06
   2440      1     26     61     -0.1314          0.6804E+06
   2441      1     26     62     -0.1392          0.6804E+06
   2442      1     26     63     -0.1579          0.6804E+06
   2443      1     26     64     -0.1656          0.6804E+06
   2444      1     26     65     -0.1685          0.6804E+06
   2445      1     26     66     -0.1647          0.6804E+06
   2446      1     26     67     -0.1576          0.6804E+06
   2447      1     26     68     -0.1543          0.6804E+06
   2448      1     26     69     -0.1562          0.6804E+06
   2449      1     26     70     -0.1770          0.6804E+06
   2450      1     26     71     -0.2020          0.6804E+06
   2451      1     26     72     -0.2427          0.6804E+06
   2452      1     26     73     -0.2004          0.6804E+06
   2453      1     26     74     -0.1797          0.6804E+06
   2454      1     26     75     -0.1721          0.6804E+06
   2455      1     26     76     -0.1524          0.6804E+06
   2456      1     26     77     -0.1368          0.6804E+06
   2457      1     26     78     -0.1045          0.6804E+06
   2458      1     26     79     -0.1009          0.6804E+06
   2459      1     26     80     -0.8650E-01      0.6804E+06
   2460      1     26     81     -0.5502E-01      0.6804E+06
   2461      1     26     82       0.000          0.6804E+06
   2462      1     26     83       0.000          0.6804E+06
   2463      1     26     84       0.000          0.6804E+06
   2464      1     26     85      0.3170E-02      0.6804E+06
   2465      1     26     86      0.1374E-01      0.6804E+06
   2466      1     26     87      0.2449E-01      0.6804E+06
   2467      1     26     88      0.3370E-01      0.6804E+06
   2468      1     26     89      0.4341E-01      0.6804E+06
   2469      1     26     90      0.5110E-01      0.6804E+06
   2470      1     26     91      0.5584E-01      0.6804E+06
   2471      1     26     92      0.5959E-01      0.6804E+06
   2472      1     26     93      0.6149E-01      0.6804E+06
   2473      1     26     94      0.6230E-01      0.6804E+06
   2474      1     26     95      0.6188E-01      0.6804E+06
   2475      1     26     96      0.6060E-01      0.6804E+06
   2476      1     26     97      0.5918E-01      0.6804E+06
   2477      1     26     98      0.5893E-01      0.6804E+06
   2478      1     26     99      0.6070E-01      0.6804E+06
   2479      1     26    100      0.6231E-01      0.6804E+06
   2480      1     27      1      0.5670          0.6804E+06
   2481      1     27      2      0.5548          0.6804E+06
   2482      1     27      3      0.5411          0.6804E+06
   2483      1     27      4      0.5230          0.6804E+06
   2484      1     27      5      0.5033          0.6804E+06
   2485      1     27      6      0.4853          0.6804E+06
   2486      1     27      7      0.4633          0.6804E+06
   2487      1     27      8      0.4393          0.6804E+06
   2488      1     27      9      0.4168          0.6804E+06
   2489      1     27     10      0.3899          0.6804E+06
   2490      1     27     11      0.3657          0.6804E+06
   2491      1     27     12      0.3373          0.6804E+06
   2492      1     27     13      0.3080          0.6804E+06
   2493      1     27     14      0.2813          0.6804E+06
   2494      1     27     15      0.2500          0.6804E+06
   2495      1     27     16      0.2230          0.6804E+06
   2496      1     27     17      0.1934          0.6804E+06
   2497      1     27     18      0.1666          0.6804E+06
   2498      1     27     19      0.1470          0.6804E+06
   2499      1     27     20      0.1288          0.6804E+06
   2500      1     27     21      0.1138          0.6804E+06
   2501      1     27     22      0.1025          0.6804E+06
   2502      1     27     23      0.9048E-01      0.6804E+06
   2503      1     27     24      0.7985E-01      0.6804E+06
   2504      1     27     25      0.6826E-01      0.6804E+06
   2505      1     27     26      0.5537E-01      0.6804E+06
   2506      1     27     27      0.4182E-01      0.6804E+06
   2507      1     27     28      0.2446E-01      0.6804E+06
   2508      1     27     29      0.7162E-02      0.6804E+06
   2509      1     27     30      0.1566E-02      0.6804E+06
   2510      1     27     31       0.000          0.6804E+06
   2511      1     27     32       0.000          0.6804E+06
   2512      1     27     33      0.7411E-02      0.6804E+06
   2513      1     27     34      0.1019E-01      0.6804E+06
   2514      1     27     35      0.9729E-02      0.6804E+06
   2515      1     27     60     -0.1669          0.6804E+06
   2516      1     27     61     -0.1695          0.6804E+06
   2517      1     27     62     -0.1695          0.6804E+06
   2518      1     27     63     -0.1640          0.6804E+06
   2519      1     27     64     -0.1552          0.6804E+06
   2520      1     27     65     -0.1487          0.6804E+06
   2521      1     27     66     -0.1467          0.6804E+06
   2522      1     27     67     -0.1566          0.6804E+06
   2523      1     27     68     -0.1705          0.6804E+06
   2524      1     27     69     -0.1952          0.6804E+06
   2525      1     27     70     -0.2166          0.6804E+06
   2526      1     27     71     -0.1907          0.6804E+06
   2527      1     27     72     -0.1551          0.6804E+06
   2528      1     27     73     -0.1254          0.6804E+06
   2529      1     27     74     -0.1171          0.6804E+06
   2530      1     27     75     -0.1069          0.6804E+06
   2531      1     27     76     -0.1040          0.6804E+06
   2532      1     27     77     -0.1249          0.6804E+06
   2533      1     27     78     -0.1072          0.6804E+06
   2534      1     27     79     -0.8735E-01      0.6804E+06
   2535      1     27     80       0.000          0.6804E+06
   2536      1     27     81       0.000          0.6804E+06
   2537      1     27     82       0.000          0.6804E+06
   2538      1     27     83       0.000          0.6804E+06
   2539      1     27     84      0.8255E-02      0.6804E+06
   2540      1     27     85      0.1729E-01      0.6804E+06
   2541      1     27     86      0.2705E-01      0.6804E+06
   2542      1     27     87      0.3572E-01      0.6804E+06
   2543      1     27     88      0.4322E-01      0.6804E+06
   2544      1     27     89      0.5101E-01      0.6804E+06
   2545      1     27     90      0.5687E-01      0.6804E+06
   2546      1     27     91      0.6061E-01      0.6804E+06
   2547      1     27     92      0.6297E-01      0.6804E+06
   2548      1     27     93      0.6383E-01      0.6804E+06
   2549      1     27     94      0.6386E-01      0.6804E+06
   2550      1     27     95      0.6304E-01      0.6804E+06
   2551      1     27     96      0.6184E-01      0.6804E+06
   2552      1     27     97      0.6064E-01      0.6804E+06
   2553      1     27     98      0.6021E-01      0.6804E+06
   2554      1     27     99      0.6093E-01      0.6804E+06
   2555      1     27    100      0.6193E-01      0.6804E+06
   2556      1     28      1      0.5681          0.6804E+06
   2557      1     28      2      0.5553          0.6804E+06
   2558      1     28      3      0.5419          0.6804E+06
   2559      1     28      4      0.5244          0.6804E+06
   2560      1     28      5      0.5055          0.6804E+06
   2561      1     28      6      0.4880          0.6804E+06
   2562      1     28      7      0.4664          0.6804E+06
   2563      1     28      8      0.4407          0.6804E+06
   2564      1     28      9      0.4160          0.6804E+06
   2565      1     28     10      0.3865          0.6804E+06
   2566      1     28     11      0.3601          0.6804E+06
   2567      1     28     12      0.3294          0.6804E+06
   2568      1     28     13      0.2984          0.6804E+06
   2569      1     28     14      0.2709          0.6804E+06
   2570      1     28     15      0.2394          0.6804E+06
   2571      1     28     16      0.2126          0.6804E+06
   2572      1     28     17      0.1836          0.6804E+06
   2573      1     28     18      0.1579          0.6804E+06
   2574      1     28     19      0.1401          0.6804E+06
   2575      1     28     20      0.1246          0.6804E+06
   2576      1     28     21      0.1124          0.6804E+06
   2577      1     28     22      0.1032          0.6804E+06
   2578      1     28     23      0.9354E-01      0.6804E+06
   2579      1     28     24      0.8489E-01      0.6804E+06
   2580      1     28     25      0.7478E-01      0.6804E+06
   2581      1     28     26      0.6319E-01      0.6804E+06
   2582      1     28     27      0.5140E-01      0.6804E+06
   2583      1     28     28      0.3795E-01      0.6804E+06
   2584      1     28     29      0.2614E-01      0.6804E+06
   2585      1     28     30      0.1001E-01      0.6804E+06
   2586      1     28     31       0.000          0.6804E+06
   2587      1     28     32       0.000          0.6804E+06
   2588      1     28     33     -0.2370E-01      0.6804E+06
   2589      1     28     34     -0.2966E-01      0.6804E+06
   2590      1     28     35     -0.3834E-01      0.6804E+06
   2591      1     28     60     -0.1601          0.6804E+06
   2592      1     28     61     -0.1565          0.6804E+06
   2593      1     28     62     -0.1534          0.6804E+06
   2594      1     28     63     -0.1489          0.6804E+06
   2595      1     28     64     -0.1477          0.6804E+06
   2596      1     28     65     -0.1612          0.6804E+06
   2597      1     28     66     -0.1845          0.6804E+06
   2598      1     28     67     -0.2015          0.6804E+06
   2599      1     28     68     -0.1858          0.6804E+06
   2600      1     28     69     -0.1682          0.6804E+06
   2601      1     28     70     -0.1525          0.6804E+06
   2602      1     28     71     -0.1304          0.6804E+06
   2603      1     28     72     -0.1094          0.6804E+06
   2604      1     28     73     -0.9369E-01      0.6804E+06
   2605      1     28     74     -0.8945E-01      0.6804E+06
   2606      1     28     75     -0.8233E-01      0.6804E+06
   2607      1     28     76     -0.6371E-01      0.6804E+06
   2608      1     28     77     -0.8235E-01      0.6804E+06
   2609      1     28     78       0.000          0.6804E+06
   2610      1     28     79       0.000          0.6804E+06
   2611      1     28     80       0.000          0.6804E+06
   2612      1     28     81       0.000          0.6804E+06
   2613      1     28     82       0.000          0.6804E+06
   2614      1     28     83      0.4225E-02      0.6804E+06
   2615      1     28     84      0.1971E-01      0.6804E+06
   2616      1     28     85      0.2828E-01      0.6804E+06
   2617      1     28     86      0.3682E-01      0.6804E+06
   2618      1     28     87      0.4423E-01      0.6804E+06
   2619      1     28     88      0.5042E-01      0.6804E+06
   2620      1     28     89      0.5677E-01      0.6804E+06
   2621      1     28     90      0.6140E-01      0.6804E+06
   2622      1     28     91      0.6408E-01      0.6804E+06
   2623      1     28     92      0.6547E-01      0.6804E+06
   2624      1     28     93      0.6569E-01      0.6804E+06
   2625      1     28     94      0.6522E-01      0.6804E+06
   2626      1     28     95      0.6421E-01      0.6804E+06
   2627      1     28     96      0.6312E-01      0.6804E+06
   2628      1     28     97      0.6201E-01      0.6804E+06
   2629      1     28     98      0.6146E-01      0.6804E+06
   2630      1     28     99      0.6161E-01      0.6804E+06
   2631      1     28    100      0.6221E-01      0.6804E+06
   2632      1     29      1      0.5700          0.6804E+06
   2633      1     29      2      0.5563          0.6804E+06
   2634      1     29      3      0.5425          0.6804E+06
   2635      1     29      4      0.5251          0.6804E+06
   2636      1     29      5      0.5063          0.6804E+06
   2637      1     29      6      0.4890          0.6804E+06
   2638      1     29      7      0.4675          0.6804E+06
   2639      1     29      8      0.4403          0.6804E+06
   2640      1     29      9      0.4137          0.6804E+06
   2641      1     29     10      0.3820          0.6804E+06
   2642      1     29     11      0.3536          0.6804E+06
   2643      1     29     12      0.3207          0.6804E+06
   2644      1     29     13      0.2882          0.6804E+06
   2645      1     29     14      0.2600          0.6804E+06
   2646      1     29     15      0.2281          0.6804E+06
   2647      1     29     16      0.2013          0.6804E+06
   2648      1     29     17      0.1726          0.6804E+06
   2649      1     29     18      0.1479          0.6804E+06
   2650      1     29     19      0.1323          0.6804E+06
   2651      1     29     20      0.1201          0.6804E+06
   2652      1     29     21      0.1111          0.6804E+06
   2653      1     29     22      0.1046          0.6804E+06
   2654      1     29     23      0.9788E-01      0.6804E+06
   2655      1     29     24      0.9167E-01      0.6804E+06
   2656      1     29     25      0.8335E-01      0.6804E+06
   2657      1     29     26      0.7366E-01      0.6804E+06
   2658      1     29     27      0.6466E-01      0.6804E+06
   2659      1     29     28      0.5424E-01      0.6804E+06
   2660      1     29     29      0.4269E-01      0.6804E+06
   2661      1     29     30      0.3068E-01      0.6804E+06
   2662      1     29     31      0.1058E-01      0.6804E+06
   2663      1     29     32     -0.2452E-01      0.6804E+06
   2664      1     29     33     -0.6142E-01      0.6804E+06
   2665      1     29     34     -0.1176          0.6804E+06
   2666      1     29     60     -0.1426          0.6804E+06
   2667      1     29     61     -0.1485          0.6804E+06
   2668      1     29     62     -0.1593          0.6804E+06
   2669      1     29     63     -0.1783          0.6804E+06
   2670      1     29     64     -0.1805          0.6804E+06
   2671      1     29     65     -0.1835          0.6804E+06
   2672      1     29     66     -0.1853          0.6804E+06
   2673      1     29     67     -0.1685          0.6804E+06
   2674      1     29     68     -0.1458          0.6804E+06
   2675      1     29     69     -0.1241          0.6804E+06
   2676      1     29     70     -0.1134          0.6804E+06
   2677      1     29     71     -0.1011          0.6804E+06
   2678      1     29     72     -0.7897E-01      0.6804E+06
   2679      1     29     73     -0.6220E-01      0.6804E+06
   2680      1     29     74     -0.6153E-01      0.6804E+06
   2681      1     29     75     -0.5850E-01      0.6804E+06
   2682      1     29     76       0.000          0.6804E+06
   2683      1     29     77       0.000          0.6804E+06
   2684      1     29     78       0.000          0.6804E+06
   2685      1     29     79       0.000          0.6804E+06
   2686      1     29     80       0.000          0.6804E+06
   2687      1     29     81       0.000          0.6804E+06
   2688      1     29     82       0.000          0.6804E+06
   2689      1     29     83      0.1538E-01      0.6804E+06
   2690      1     29     84      0.2834E-01      0.6804E+06
   2691      1     29     85      0.3735E-01      0.6804E+06
   2692      1     29     86      0.4524E-01      0.6804E+06
   2693      1     29     87      0.5186E-01      0.6804E+06
   2694      1     29     88      0.5690E-01      0.6804E+06
   2695      1     29     89      0.6171E-01      0.6804E+06
   2696      1     29     90      0.6499E-01      0.6804E+06
   2697      1     29     91      0.6662E-01      0.6804E+06
   2698      1     29     92      0.6732E-01      0.6804E+06
   2699      1     29     93      0.6720E-01      0.6804E+06
   2700      1     29     94      0.6645E-01      0.6804E+06
   2701      1     29     95      0.6533E-01      0.6804E+06
   2702      1     29     96      0.6422E-01      0.6804E+06
   2703      1     29     97      0.6315E-01      0.6804E+06
   2704      1     29     98      0.6261E-01      0.6804E+06
   2705      1     29     99      0.6248E-01      0.6804E+06
   2706      1     29    100      0.6280E-01      0.6804E+06
   2707      1     30      1      0.5723          0.6804E+06
   2708      1     30      2      0.5574          0.6804E+06
   2709      1     30      3      0.5428          0.6804E+06
   2710      1     30      4      0.5247          0.6804E+06
   2711      1     30      5      0.5052          0.6804E+06
   2712      1     30      6      0.4870          0.6804E+06
   2713      1     30      7      0.4642          0.6804E+06
   2714      1     30      8      0.4366          0.6804E+06
   2715      1     30      9      0.4097          0.6804E+06
   2716      1     30     10      0.3771          0.6804E+06
   2717      1     30     11      0.3475          0.6804E+06
   2718      1     30     12      0.3131          0.6804E+06
   2719      1     30     13      0.2793          0.6804E+06
   2720      1     30     14      0.2507          0.6804E+06
   2721      1     30     15      0.2184          0.6804E+06
   2722      1     30     16      0.1913          0.6804E+06
   2723      1     30     17      0.1628          0.6804E+06
   2724      1     30     18      0.1394          0.6804E+06
   2725      1     30     19      0.1259          0.6804E+06
   2726      1     30     20      0.1165          0.6804E+06
   2727      1     30     21      0.1105          0.6804E+06
   2728      1     30     22      0.1066          0.6804E+06
   2729      1     30     23      0.1026          0.6804E+06
   2730      1     30     24      0.9869E-01      0.6804E+06
   2731      1     30     25      0.9259E-01      0.6804E+06
   2732      1     30     26      0.8508E-01      0.6804E+06
   2733      1     30     27      0.7842E-01      0.6804E+06
   2734      1     30     28      0.6991E-01      0.6804E+06
   2735      1     30     29      0.5887E-01      0.6804E+06
   2736      1     30     30      0.4643E-01      0.6804E+06
   2737      1     30     31      0.2974E-01      0.6804E+06
   2738      1     30     32      0.5549E-02      0.6804E+06
   2739      1     30     33     -0.8317E-01      0.6804E+06
   2740      1     30     60     -0.1572          0.6804E+06
   2741      1     30     61     -0.1861          0.6804E+06
   2742      1     30     62     -0.1805          0.6804E+06
   2743      1     30     63     -0.1792          0.6804E+06
   2744      1     30     64     -0.1654          0.6804E+06
   2745      1     30     65     -0.1576          0.6804E+06
   2746      1     30     66     -0.1482          0.6804E+06
   2747      1     30     67     -0.1200          0.6804E+06
   2748      1     30     68     -0.1172          0.6804E+06
   2749      1     30     69     -0.1047          0.6804E+06
   2750      1     30     70     -0.8185E-01      0.6804E+06
   2751      1     30     71     -0.6986E-01      0.6804E+06
   2752      1     30     72     -0.6020E-01      0.6804E+06
   2753      1     30     73     -0.5015E-01      0.6804E+06
   2754      1     30     74       0.000          0.6804E+06
   2755      1     30     75       0.000          0.6804E+06
   2756      1     30     76       0.000          0.6804E+06
   2757      1     30     77       0.000          0.6804E+06
   2758      1     30     78       0.000          0.6804E+06
   2759      1     30     79       0.000          0.6804E+06
   2760      1     30     80       0.000          0.6804E+06
   2761      1     30     81       0.000          0.6804E+06
   2762      1     30     82      0.9039E-02      0.6804E+06
   2763      1     30     83      0.2266E-01      0.6804E+06
   2764      1     30     84      0.3518E-01      0.6804E+06
   2765      1     30     85      0.4412E-01      0.6804E+06
   2766      1     30     86      0.5162E-01      0.6804E+06
   2767      1     30     87      0.5758E-01      0.6804E+06
   2768      1     30     88      0.6165E-01      0.6804E+06
   2769      1     30     89      0.6516E-01      0.6804E+06
   2770      1     30     90      0.6738E-01      0.6804E+06
   2771      1     30     91      0.6840E-01      0.6804E+06
   2772      1     30     92      0.6858E-01      0.6804E+06
   2773      1     30     93      0.6810E-01      0.6804E+06
   2774      1     30     94      0.6714E-01      0.6804E+06
   2775      1     30     95      0.6598E-01      0.6804E+06
   2776      1     30     96      0.6482E-01      0.6804E+06
   2777      1     30     97      0.6374E-01      0.6804E+06
   2778      1     30     98      0.6330E-01      0.6804E+06
   2779      1     30     99      0.6322E-01      0.6804E+06
   2780      1     30    100      0.6326E-01      0.6804E+06
   2781      1     31      1      0.5747          0.6804E+06
   2782      1     31      2      0.5586          0.6804E+06
   2783      1     31      3      0.5430          0.6804E+06
   2784      1     31      4      0.5236          0.6804E+06
   2785      1     31      5      0.5029          0.6804E+06
   2786      1     31      6      0.4835          0.6804E+06
   2787      1     31      7      0.4593          0.6804E+06
   2788      1     31      8      0.4317          0.6804E+06
   2789      1     31      9      0.4053          0.6804E+06
   2790      1     31     10      0.3730          0.6804E+06
   2791      1     31     11      0.3432          0.6804E+06
   2792      1     31     12      0.3081          0.6804E+06
   2793      1     31     13      0.2735          0.6804E+06
   2794      1     31     14      0.2447          0.6804E+06
   2795      1     31     15      0.2117          0.6804E+06
   2796      1     31     16      0.1840          0.6804E+06
   2797      1     31     17      0.1552          0.6804E+06
   2798      1     31     18      0.1327          0.6804E+06
   2799      1     31     19      0.1212          0.6804E+06
   2800      1     31     20      0.1142          0.6804E+06
   2801      1     31     21      0.1107          0.6804E+06
   2802      1     31     22      0.1090          0.6804E+06
   2803      1     31     23      0.1072          0.6804E+06
   2804      1     31     24      0.1047          0.6804E+06
   2805      1     31     25      0.1002          0.6804E+06
   2806      1     31     26      0.9431E-01      0.6804E+06
   2807      1     31     27      0.8889E-01      0.6804E+06
   2808      1     31     28      0.8146E-01      0.6804E+06
   2809      1     31     29      0.7090E-01      0.6804E+06
   2810      1     31     30      0.5776E-01      0.6804E+06
   2811      1     31     31      0.3528E-01      0.6804E+06
   2812      1     31     32      0.6134E-02      0.6804E+06
   2813      1     31     33     -0.9723E-01      0.6804E+06
   2814      1     31     60     -0.1393          0.6804E+06
   2815      1     31     61     -0.1466          0.6804E+06
   2816      1     31     62     -0.1492          0.6804E+06
   2817      1     31     63     -0.1516          0.6804E+06
   2818      1     31     64     -0.1403          0.6804E+06
   2819      1     31     65     -0.1504          0.6804E+06
   2820      1     31     66     -0.1346          0.6804E+06
   2821      1     31     67     -0.9755E-01      0.6804E+06
   2822      1     31     68     -0.9511E-01      0.6804E+06
   2823      1     31     69     -0.8620E-01      0.6804E+06
   2824      1     31     70     -0.6211E-01      0.6804E+06
   2825      1     31     71     -0.5246E-01      0.6804E+06
   2826      1     31     72       0.000          0.6804E+06
   2827      1     31     73       0.000          0.6804E+06
   2828      1     31     74       0.000          0.6804E+06
   2829      1     31     75       0.000          0.6804E+06
   2830      1     31     76       0.000          0.6804E+06
   2831      1     31     77       0.000          0.6804E+06
   2832      1     31     78       0.000          0.6804E+06
   2833      1     31     79       0.000          0.6804E+06
   2834      1     31     80       0.000          0.6804E+06
   2835      1     31     81       0.000          0.6804E+06
   2836      1     31     82      0.1615E-01      0.6804E+06
   2837      1     31     83      0.2860E-01      0.6804E+06
   2838      1     31     84      0.4041E-01      0.6804E+06
   2839      1     31     85      0.4886E-01      0.6804E+06
   2840      1     31     86      0.5607E-01      0.6804E+06
   2841      1     31     87      0.6131E-01      0.6804E+06
   2842      1     31     88      0.6460E-01      0.6804E+06
   2843      1     31     89      0.6714E-01      0.6804E+06
   2844      1     31     90      0.6860E-01      0.6804E+06
   2845      1     31     91      0.6926E-01      0.6804E+06
   2846      1     31     92      0.6919E-01      0.6804E+06
   2847      1     31     93      0.6858E-01      0.6804E+06
   2848      1     31     94      0.6752E-01      0.6804E+06
   2849      1     31     95      0.6632E-01      0.6804E+06
   2850      1     31     96      0.6513E-01      0.6804E+06
   2851      1     31     97      0.6410E-01      0.6804E+06
   2852      1     31     98      0.6385E-01      0.6804E+06
   2853      1     31     99      0.6373E-01      0.6804E+06
   2854      1     31    100      0.6355E-01      0.6804E+06
   2855      1     32      1      0.5779          0.6804E+06
   2856      1     32      2      0.5603          0.6804E+06
   2857      1     32      3      0.5432          0.6804E+06
   2858      1     32      4      0.5223          0.6804E+06
   2859      1     32      5      0.4998          0.6804E+06
   2860      1     32      6      0.4791          0.6804E+06
   2861      1     32      7      0.4540          0.6804E+06
   2862      1     32      8      0.4267          0.6804E+06
   2863      1     32      9      0.4011          0.6804E+06
   2864      1     32     10      0.3698          0.6804E+06
   2865      1     32     11      0.3407          0.6804E+06
   2866      1     32     12      0.3063          0.6804E+06
   2867      1     32     13      0.2716          0.6804E+06
   2868      1     32     14      0.2416          0.6804E+06
   2869      1     32     15      0.2072          0.6804E+06
   2870      1     32     16      0.1779          0.6804E+06
   2871      1     32     17      0.1474          0.6804E+06
   2872      1     32     18      0.1244          0.6804E+06
   2873      1     32     19      0.1160          0.6804E+06
   2874      1     32     20      0.1127          0.6804E+06
   2875      1     32     21      0.1123          0.6804E+06
   2876      1     32     22      0.1126          0.6804E+06
   2877      1     32     23      0.1128          0.6804E+06
   2878      1     32     24      0.1111          0.6804E+06
   2879      1     32     25      0.1078          0.6804E+06
   2880      1     32     26      0.1035          0.6804E+06
   2881      1     32     27      0.9883E-01      0.6804E+06
   2882      1     32     28      0.9183E-01      0.6804E+06
   2883      1     32     29      0.8132E-01      0.6804E+06
   2884      1     32     30      0.6722E-01      0.6804E+06
   2885      1     32     31      0.4008E-01      0.6804E+06
   2886      1     32     32      0.5005E-02      0.6804E+06
   2887      1     32     59     -0.1228          0.6804E+06
   2888      1     32     60     -0.1187          0.6804E+06
   2889      1     32     61     -0.1189          0.6804E+06
   2890      1     32     62     -0.1090          0.6804E+06
   2891      1     32     63     -0.1122          0.6804E+06
   2892      1     32     64     -0.1184          0.6804E+06
   2893      1     32     65     -0.1213          0.6804E+06
   2894      1     32     66     -0.1004          0.6804E+06
   2895      1     32     67     -0.8122E-01      0.6804E+06
   2896      1     32     68     -0.6775E-01      0.6804E+06
   2897      1     32     69     -0.5838E-01      0.6804E+06
   2898      1     32     70       0.000          0.6804E+06
   2899      1     32     71       0.000          0.6804E+06
   2900      1     32     72       0.000          0.6804E+06
   2901      1     32     73       0.000          0.6804E+06
   2902      1     32     74       0.000          0.6804E+06
   2903      1     32     75       0.000          0.6804E+06
   2904      1     32     76       0.000          0.6804E+06
   2905      1     32     77       0.000          0.6804E+06
   2906      1     32     78       0.000          0.6804E+06
   2907      1     32     79       0.000          0.6804E+06
   2908      1     32     80       0.000          0.6804E+06
   2909      1     32     81       0.000          0.6804E+06
   2910      1     32     82      0.1953E-01      0.6804E+06
   2911      1     32     83      0.3269E-01      0.6804E+06
   2912      1     32     84      0.4489E-01      0.6804E+06
   2913      1     32     85      0.5309E-01      0.6804E+06
   2914      1     32     86      0.5995E-01      0.6804E+06
   2915      1     32     87      0.6416E-01      0.6804E+06
   2916      1     32     88      0.6654E-01      0.6804E+06
   2917      1     32     89      0.6828E-01      0.6804E+06
   2918      1     32     90      0.6913E-01      0.6804E+06
   2919      1     32     91      0.6949E-01      0.6804E+06
   2920      1     32     92      0.6939E-01      0.6804E+06
   2921      1     32     93      0.6886E-01      0.6804E+06
   2922      1     32     94      0.6782E-01      0.6804E+06
   2923      1     32     95      0.6661E-01      0.6804E+06
   2924      1     32     96      0.6550E-01      0.6804E+06
   2925      1     32     97      0.6456E-01      0.6804E+06
   2926      1     32     98      0.6433E-01      0.6804E+06
   2927      1     32     99      0.6422E-01      0.6804E+06
   2928      1     32    100      0.6391E-01      0.6804E+06
   2929      1     33      1      0.5810          0.6804E+06
   2930      1     33      2      0.5620          0.6804E+06
   2931      1     33      3      0.5437          0.6804E+06
   2932      1     33      4      0.5213          0.6804E+06
   2933      1     33      5      0.4973          0.6804E+06
   2934      1     33      6      0.4755          0.6804E+06
   2935      1     33      7      0.4501          0.6804E+06
   2936      1     33      8      0.4234          0.6804E+06
   2937      1     33      9      0.3986          0.6804E+06
   2938      1     33     10      0.3684          0.6804E+06
   2939      1     33     11      0.3403          0.6804E+06
   2940      1     33     12      0.3068          0.6804E+06
   2941      1     33     13      0.2724          0.6804E+06
   2942      1     33     14      0.2419          0.6804E+06
   2943      1     33     15      0.2067          0.6804E+06
   2944      1     33     16      0.1764          0.6804E+06
   2945      1     33     17      0.1449          0.6804E+06
   2946      1     33     18      0.1216          0.6804E+06
   2947      1     33     19      0.1147          0.6804E+06
   2948      1     33     20      0.1135          0.6804E+06
   2949      1     33     21      0.1152          0.6804E+06
   2950      1     33     22      0.1171          0.6804E+06
   2951      1     33     23      0.1176          0.6804E+06
   2952      1     33     24      0.1164          0.6804E+06
   2953      1     33     25      0.1139          0.6804E+06
   2954      1     33     26      0.1104          0.6804E+06
   2955      1     33     27      0.1059          0.6804E+06
   2956      1     33     28      0.9817E-01      0.6804E+06
   2957      1     33     29      0.8677E-01      0.6804E+06
   2958      1     33     30      0.7194E-01      0.6804E+06
   2959      1     33     31      0.4361E-01      0.6804E+06
   2960      1     33     32      0.9645E-02      0.6804E+06
   2961      1     33     59     -0.1126          0.6804E+06
   2962      1     33     60     -0.1104          0.6804E+06
   2963      1     33     61     -0.1023          0.6804E+06
   2964      1     33     62     -0.8346E-01      0.6804E+06
   2965      1     33     63     -0.8191E-01      0.6804E+06
   2966      1     33     64     -0.8904E-01      0.6804E+06
   2967      1     33     65     -0.9325E-01      0.6804E+06
   2968      1     33     66     -0.8452E-01      0.6804E+06
   2969      1     33     67     -0.6535E-01      0.6804E+06
   2970      1     33     68       0.000          0.6804E+06
   2971      1     33     69       0.000          0.6804E+06
   2972      1     33     70       0.000          0.6804E+06
   2973      1     33     71       0.000          0.6804E+06
   2974      1     33     72       0.000          0.6804E+06
   2975      1     33     73       0.000          0.6804E+06
   2976      1     33     74       0.000          0.6804E+06
   2977      1     33     75       0.000          0.6804E+06
   2978      1     33     76       0.000          0.6804E+06
   2979      1     33     77       0.000          0.6804E+06
   2980      1     33     78       0.000          0.6804E+06
   2981      1     33     79       0.000          0.6804E+06
   2982      1     33     80       0.000          0.6804E+06
   2983      1     33     81      0.5161E-02      0.6804E+06
   2984      1     33     82      0.2407E-01      0.6804E+06
   2985      1     33     83      0.3661E-01      0.6804E+06
   2986      1     33     84      0.4812E-01      0.6804E+06
   2987      1     33     85      0.5586E-01      0.6804E+06
   2988      1     33     86      0.6210E-01      0.6804E+06
   2989      1     33     87      0.6533E-01      0.6804E+06
   2990      1     33     88      0.6699E-01      0.6804E+06
   2991      1     33     89      0.6828E-01      0.6804E+06
   2992      1     33     90      0.6901E-01      0.6804E+06
   2993      1     33     91      0.6930E-01      0.6804E+06
   2994      1     33     92      0.6924E-01      0.6804E+06
   2995      1     33     93      0.6885E-01      0.6804E+06
   2996      1     33     94      0.6800E-01      0.6804E+06
   2997      1     33     95      0.6681E-01      0.6804E+06
   2998      1     33     96      0.6583E-01      0.6804E+06
   2999      1     33     97      0.6498E-01      0.6804E+06
   3000      1     33     98      0.6456E-01      0.6804E+06
   3001      1     33     99      0.6449E-01      0.6804E+06
   3002      1     33    100      0.6419E-01      0.6804E+06
   3003      1     34      1      0.5850          0.6804E+06
   3004      1     34      2      0.5644          0.6804E+06
   3005      1     34      3      0.5447          0.6804E+06
   3006      1     34      4      0.5207          0.6804E+06
   3007      1     34      5      0.4952          0.6804E+06
   3008      1     34      6      0.4723          0.6804E+06
   3009      1     34      7      0.4469          0.6804E+06
   3010      1     34      8      0.4209          0.6804E+06
   3011      1     34      9      0.3972          0.6804E+06
   3012      1     34     10      0.3685          0.6804E+06
   3013      1     34     11      0.3417          0.6804E+06
   3014      1     34     12      0.3096          0.6804E+06
   3015      1     34     13      0.2758          0.6804E+06
   3016      1     34     14      0.2450          0.6804E+06
   3017      1     34     15      0.2093          0.6804E+06
   3018      1     34     16      0.1789          0.6804E+06
   3019      1     34     17      0.1476          0.6804E+06
   3020      1     34     18      0.1252          0.6804E+06
   3021      1     34     19      0.1181          0.6804E+06
   3022      1     34     20      0.1171          0.6804E+06
   3023      1     34     21      0.1198          0.6804E+06
   3024      1     34     22      0.1228          0.6804E+06
   3025      1     34     23      0.1239          0.6804E+06
   3026      1     34     24      0.1226          0.6804E+06
   3027      1     34     25      0.1193          0.6804E+06
   3028      1     34     26      0.1146          0.6804E+06
   3029      1     34     27      0.1096          0.6804E+06
   3030      1     34     28      0.1010          0.6804E+06
   3031      1     34     29      0.8853E-01      0.6804E+06
   3032      1     34     30      0.7289E-01      0.6804E+06
   3033      1     34     31      0.4527E-01      0.6804E+06
   3034      1     34     32      0.1356E-01      0.6804E+06
   3035      1     34     58     -0.9494E-01      0.6804E+06
   3036      1     34     59     -0.9613E-01      0.6804E+06
   3037      1     34     60     -0.8755E-01      0.6804E+06
   3038      1     34     61     -0.7797E-01      0.6804E+06
   3039      1     34     62     -0.6027E-01      0.6804E+06
   3040      1     34     63     -0.5935E-01      0.6804E+06
   3041      1     34     64     -0.5738E-01      0.6804E+06
   3042      1     34     65     -0.5644E-01      0.6804E+06
   3043      1     34     66       0.000          0.6804E+06
   3044      1     34     67       0.000          0.6804E+06
   3045      1     34     68       0.000          0.6804E+06
   3046      1     34     69       0.000          0.6804E+06
   3047      1     34     70       0.000          0.6804E+06
   3048      1     34     71       0.000          0.6804E+06
   3049      1     34     72       0.000          0.6804E+06
   3050      1     34     73       0.000          0.6804E+06
   3051      1     34     74       0.000          0.6804E+06
   3052      1     34     75       0.000          0.6804E+06
   3053      1     34     76       0.000          0.6804E+06
   3054      1     34     77       0.000          0.6804E+06
   3055      1     34     78       0.000          0.6804E+06
   3056      1     34     79       0.000          0.6804E+06
   3057      1     34     80       0.000          0.6804E+06
   3058      1     34     81      0.1513E-01      0.6804E+06
   3059      1     34     82      0.2989E-01      0.6804E+06
   3060      1     34     83      0.4100E-01      0.6804E+06
   3061      1     34     84      0.5127E-01      0.6804E+06
   3062      1     34     85      0.5804E-01      0.6804E+06
   3063      1     34     86      0.6300E-01      0.6804E+06
   3064      1     34     87      0.6518E-01      0.6804E+06
   3065      1     34     88      0.6624E-01      0.6804E+06
   3066      1     34     89      0.6742E-01      0.6804E+06
   3067      1     34     90      0.6844E-01      0.6804E+06
   3068      1     34     91      0.6885E-01      0.6804E+06
   3069      1     34     92      0.6879E-01      0.6804E+06
   3070      1     34     93      0.6841E-01      0.6804E+06
   3071      1     34     94      0.6779E-01      0.6804E+06
   3072      1     34     95      0.6675E-01      0.6804E+06
   3073      1     34     96      0.6586E-01      0.6804E+06
   3074      1     34     97      0.6507E-01      0.6804E+06
   3075      1     34     98      0.6465E-01      0.6804E+06
   3076      1     34     99      0.6448E-01      0.6804E+06
   3077      1     34    100      0.6432E-01      0.6804E+06
   3078      1     35      1      0.5898          0.6804E+06
   3079      1     35      2      0.5675          0.6804E+06
   3080      1     35      3      0.5464          0.6804E+06
   3081      1     35      4      0.5210          0.6804E+06
   3082      1     35      5      0.4946          0.6804E+06
   3083      1     35      6      0.4713          0.6804E+06
   3084      1     35      7      0.4457          0.6804E+06
   3085      1     35      8      0.4202          0.6804E+06
   3086      1     35      9      0.3974          0.6804E+06
   3087      1     35     10      0.3702          0.6804E+06
   3088      1     35     11      0.3452          0.6804E+06
   3089      1     35     12      0.3147          0.6804E+06
   3090      1     35     13      0.2817          0.6804E+06
   3091      1     35     14      0.2509          0.6804E+06
   3092      1     35     15      0.2151          0.6804E+06
   3093      1     35     16      0.1847          0.6804E+06
   3094      1     35     17      0.1539          0.6804E+06
   3095      1     35     18      0.1323          0.6804E+06
   3096      1     35     19      0.1239          0.6804E+06
   3097      1     35     20      0.1219          0.6804E+06
   3098      1     35     21      0.1245          0.6804E+06
   3099      1     35     22      0.1281          0.6804E+06
   3100      1     35     23      0.1294          0.6804E+06
   3101      1     35     24      0.1270          0.6804E+06
   3102      1     35     25      0.1216          0.6804E+06
   3103      1     35     26      0.1152          0.6804E+06
   3104      1     35     27      0.1093          0.6804E+06
   3105      1     35     28      0.9887E-01      0.6804E+06
   3106      1     35     29      0.8436E-01      0.6804E+06
   3107      1     35     30      0.6686E-01      0.6804E+06
   3108      1     35     31      0.3778E-01      0.6804E+06
   3109      1     35     58     -0.7246E-01      0.6804E+06
   3110      1     35     59     -0.7209E-01      0.6804E+06
   3111      1     35     60     -0.6612E-01      0.6804E+06
   3112      1     35     61     -0.6193E-01      0.6804E+06
   3113      1     35     62     -0.5152E-01      0.6804E+06
   3114      1     35     63     -0.5240E-01      0.6804E+06
   3115      1     35     64       0.000          0.6804E+06
   3116      1     35     65       0.000          0.6804E+06
   3117      1     35     66       0.000          0.6804E+06
   3118      1     35     67       0.000          0.6804E+06
   3119      1     35     68       0.000          0.6804E+06
   3120      1     35     69       0.000          0.6804E+06
   3121      1     35     70       0.000          0.6804E+06
   3122      1     35     71       0.000          0.6804E+06
   3123      1     35     72       0.000          0.6804E+06
   3124      1     35     73       0.000          0.6804E+06
   3125      1     35     74       0.000          0.6804E+06
   3126      1     35     75       0.000          0.6804E+06
   3127      1     35     76       0.000          0.6804E+06
   3128      1     35     77       0.000          0.6804E+06
   3129      1     35     78       0.000          0.6804E+06
   3130      1     35     79       0.000          0.6804E+06
   3131      1     35     80      0.2748E-02      0.6804E+06
   3132      1     35     81      0.2048E-01      0.6804E+06
   3133      1     35     82      0.3463E-01      0.6804E+06
   3134      1     35     83      0.4484E-01      0.6804E+06
   3135      1     35     84      0.5406E-01      0.6804E+06
   3136      1     35     85      0.5989E-01      0.6804E+06
   3137      1     35     86      0.6347E-01      0.6804E+06
   3138      1     35     87      0.6468E-01      0.6804E+06
   3139      1     35     88      0.6529E-01      0.6804E+06
   3140      1     35     89      0.6646E-01      0.6804E+06
   3141      1     35     90      0.6766E-01      0.6804E+06
   3142      1     35     91      0.6808E-01      0.6804E+06
   3143      1     35     92      0.6808E-01      0.6804E+06
   3144      1     35     93      0.6782E-01      0.6804E+06
   3145      1     35     94      0.6721E-01      0.6804E+06
   3146      1     35     95      0.6632E-01      0.6804E+06
   3147      1     35     96      0.6559E-01      0.6804E+06
   3148      1     35     97      0.6492E-01      0.6804E+06
   3149      1     35     98      0.6446E-01      0.6804E+06
   3150      1     35     99      0.6425E-01      0.6804E+06
   3151      1     35    100      0.6413E-01      0.6804E+06
   3152      1     36      1      0.5945          0.6804E+06
   3153      1     36      2      0.5707          0.6804E+06
   3154      1     36      3      0.5485          0.6804E+06
   3155      1     36      4      0.5221          0.6804E+06
   3156      1     36      5      0.4951          0.6804E+06
   3157      1     36      6      0.4717          0.6804E+06
   3158      1     36      7      0.4458          0.6804E+06
   3159      1     36      8      0.4205          0.6804E+06
   3160      1     36      9      0.3983          0.6804E+06
   3161      1     36     10      0.3725          0.6804E+06
   3162      1     36     11      0.3492          0.6804E+06
   3163      1     36     12      0.3208          0.6804E+06
   3164      1     36     13      0.2890          0.6804E+06
   3165      1     36     14      0.2581          0.6804E+06
   3166      1     36     15      0.2218          0.6804E+06
   3167      1     36     16      0.1908          0.6804E+06
   3168      1     36     17      0.1589          0.6804E+06
   3169      1     36     18      0.1364          0.6804E+06
   3170      1     36     19      0.1278          0.6804E+06
   3171      1     36     20      0.1253          0.6804E+06
   3172      1     36     21      0.1273          0.6804E+06
   3173      1     36     22      0.1305          0.6804E+06
   3174      1     36     23      0.1314          0.6804E+06
   3175      1     36     24      0.1276          0.6804E+06
   3176      1     36     25      0.1201          0.6804E+06
   3177      1     36     26      0.1124          0.6804E+06
   3178      1     36     27      0.1054          0.6804E+06
   3179      1     36     28      0.9293E-01      0.6804E+06
   3180      1     36     29      0.7565E-01      0.6804E+06
   3181      1     36     30      0.5505E-01      0.6804E+06
   3182      1     36     31      0.2168E-01      0.6804E+06
   3183      1     36     58     -0.5577E-01      0.6804E+06
   3184      1     36     59     -0.5434E-01      0.6804E+06
   3185      1     36     60     -0.5409E-01      0.6804E+06
   3186      1     36     61     -0.5361E-01      0.6804E+06
   3187      1     36     62       0.000          0.6804E+06
   3188      1     36     63       0.000          0.6804E+06
   3189      1     36     64       0.000          0.6804E+06
   3190      1     36     65       0.000          0.6804E+06
   3191      1     36     66       0.000          0.6804E+06
   3192      1     36     67       0.000          0.6804E+06
   3193      1     36     68       0.000          0.6804E+06
   3194      1     36     69       0.000          0.6804E+06
   3195      1     36     70       0.000          0.6804E+06
   3196      1     36     71       0.000          0.6804E+06
   3197      1     36     72       0.000          0.6804E+06
   3198      1     36     73       0.000          0.6804E+06
   3199      1     36     74       0.000          0.6804E+06
   3200      1     36     75       0.000          0.6804E+06
   3201      1     36     76       0.000          0.6804E+06
   3202      1     36     77       0.000          0.6804E+06
   3203      1     36     78       0.000          0.6804E+06
   3204      1     36     79       0.000          0.6804E+06
   3205      1     36     80      0.1034E-01      0.6804E+06
   3206      1     36     81      0.2546E-01      0.6804E+06
   3207      1     36     82      0.3828E-01      0.6804E+06
   3208      1     36     83      0.4767E-01      0.6804E+06
   3209      1     36     84      0.5630E-01      0.6804E+06
   3210      1     36     85      0.6163E-01      0.6804E+06
   3211      1     36     86      0.6422E-01      0.6804E+06
   3212      1     36     87      0.6472E-01      0.6804E+06
   3213      1     36     88      0.6492E-01      0.6804E+06
   3214      1     36     89      0.6586E-01      0.6804E+06
   3215      1     36     90      0.6691E-01      0.6804E+06
   3216      1     36     91      0.6726E-01      0.6804E+06
   3217      1     36     92      0.6731E-01      0.6804E+06
   3218      1     36     93      0.6720E-01      0.6804E+06
   3219      1     36     94      0.6656E-01      0.6804E+06
   3220      1     36     95      0.6579E-01      0.6804E+06
   3221      1     36     96      0.6518E-01      0.6804E+06
   3222      1     36     97      0.6460E-01      0.6804E+06
   3223      1     36     98      0.6422E-01      0.6804E+06
   3224      1     36     99      0.6396E-01      0.6804E+06
   3225      1     36    100      0.6380E-01      0.6804E+06
   3226      1     37      1      0.6002          0.6804E+06
   3227      1     37      2      0.5746          0.6804E+06
   3228      1     37      3      0.5510          0.6804E+06
   3229      1     37      4      0.5234          0.6804E+06
   3230      1     37      5      0.4958          0.6804E+06
   3231      1     37      6      0.4722          0.6804E+06
   3232      1     37      7      0.4461          0.6804E+06
   3233      1     37      8      0.4209          0.6804E+06
   3234      1     37      9      0.3993          0.6804E+06
   3235      1     37     10      0.3749          0.6804E+06
   3236      1     37     11      0.3536          0.6804E+06
   3237      1     37     12      0.3282          0.6804E+06
   3238      1     37     13      0.2989          0.6804E+06
   3239      1     37     14      0.2670          0.6804E+06
   3240      1     37     15      0.2302          0.6804E+06
   3241      1     37     16      0.1990          0.6804E+06
   3242      1     37     17      0.1670          0.6804E+06
   3243      1     37     18      0.1434          0.6804E+06
   3244      1     37     19      0.1327          0.6804E+06
   3245      1     37     20      0.1274          0.6804E+06
   3246      1     37     21      0.1264          0.6804E+06
   3247      1     37     22      0.1275          0.6804E+06
   3248      1     37     23      0.1263          0.6804E+06
   3249      1     37     24      0.1215          0.6804E+06
   3250      1     37     25      0.1131          0.6804E+06
   3251      1     37     26      0.1041          0.6804E+06
   3252      1     37     27      0.9534E-01      0.6804E+06
   3253      1     37     28      0.8062E-01      0.6804E+06
   3254      1     37     29      0.5971E-01      0.6804E+06
   3255      1     37     30      0.3618E-01      0.6804E+06
   3256      1     37     58     -0.5410E-01      0.6804E+06
   3257      1     37     59     -0.5313E-01      0.6804E+06
   3258      1     37     60     -0.5294E-01      0.6804E+06
   3259      1     37     61     -0.5339E-01      0.6804E+06
   3260      1     37     62       0.000          0.6804E+06
   3261      1     37     63       0.000          0.6804E+06
   3262      1     37     64       0.000          0.6804E+06
   3263      1     37     65       0.000          0.6804E+06
   3264      1     37     66       0.000          0.6804E+06
   3265      1     37     67       0.000          0.6804E+06
   3266      1     37     68       0.000          0.6804E+06
   3267      1     37     69       0.000          0.6804E+06
   3268      1     37     70       0.000          0.6804E+06
   3269      1     37     71       0.000          0.6804E+06
   3270      1     37     72       0.000          0.6804E+06
   3271      1     37     73       0.000          0.6804E+06
   3272      1     37     74       0.000          0.6804E+06
   3273      1     37     75       0.000          0.6804E+06
   3274      1     37     76       0.000          0.6804E+06
   3275      1     37     77       0.000          0.6804E+06
   3276      1     37     78       0.000          0.6804E+06
   3277      1     37     79      0.3399E-03      0.6804E+06
   3278      1     37     80      0.1354E-01      0.6804E+06
   3279      1     37     81      0.2884E-01      0.6804E+06
   3280      1     37     82      0.4122E-01      0.6804E+06
   3281      1     37     83      0.5037E-01      0.6804E+06
   3282      1     37     84      0.5852E-01      0.6804E+06
   3283      1     37     85      0.6299E-01      0.6804E+06
   3284      1     37     86      0.6497E-01      0.6804E+06
   3285      1     37     87      0.6523E-01      0.6804E+06
   3286      1     37     88      0.6514E-01      0.6804E+06
   3287      1     37     89      0.6546E-01      0.6804E+06
   3288      1     37     90      0.6608E-01      0.6804E+06
   3289      1     37     91      0.6635E-01      0.6804E+06
   3290      1     37     92      0.6645E-01      0.6804E+06
   3291      1     37     93      0.6641E-01      0.6804E+06
   3292      1     37     94      0.6582E-01      0.6804E+06
   3293      1     37     95      0.6519E-01      0.6804E+06
   3294      1     37     96      0.6463E-01      0.6804E+06
   3295      1     37     97      0.6406E-01      0.6804E+06
   3296      1     37     98      0.6387E-01      0.6804E+06
   3297      1     37     99      0.6359E-01      0.6804E+06
   3298      1     37    100      0.6340E-01      0.6804E+06
   3299      1     38      1      0.6058          0.6804E+06
   3300      1     38      2      0.5783          0.6804E+06
   3301      1     38      3      0.5533          0.6804E+06
   3302      1     38      4      0.5242          0.6804E+06
   3303      1     38      5      0.4957          0.6804E+06
   3304      1     38      6      0.4716          0.6804E+06
   3305      1     38      7      0.4454          0.6804E+06
   3306      1     38      8      0.4204          0.6804E+06
   3307      1     38      9      0.3995          0.6804E+06
   3308      1     38     10      0.3761          0.6804E+06
   3309      1     38     11      0.3561          0.6804E+06
   3310      1     38     12      0.3322          0.6804E+06
   3311      1     38     13      0.3046          0.6804E+06
   3312      1     38     14      0.2735          0.6804E+06
   3313      1     38     15      0.2376          0.6804E+06
   3314      1     38     16      0.2076          0.6804E+06
   3315      1     38     17      0.1767          0.6804E+06
   3316      1     38     18      0.1523          0.6804E+06
   3317      1     38     19      0.1376          0.6804E+06
   3318      1     38     20      0.1266          0.6804E+06
   3319      1     38     21      0.1211          0.6804E+06
   3320      1     38     22      0.1204          0.6804E+06
   3321      1     38     23      0.1171          0.6804E+06
   3322      1     38     24      0.1110          0.6804E+06
   3323      1     38     25      0.1016          0.6804E+06
   3324      1     38     26      0.9116E-01      0.6804E+06
   3325      1     38     27      0.8044E-01      0.6804E+06
   3326      1     38     28      0.6291E-01      0.6804E+06
   3327      1     38     29      0.3824E-01      0.6804E+06
   3328      1     38     58     -0.5216E-01      0.6804E+06
   3329      1     38     59     -0.5327E-01      0.6804E+06
   3330      1     38     60     -0.5256E-01      0.6804E+06
   3331      1     38     61     -0.5299E-01      0.6804E+06
   3332      1     38     62       0.000          0.6804E+06
   3333      1     38     63       0.000          0.6804E+06
   3334      1     38     64       0.000          0.6804E+06
   3335      1     38     65       0.000          0.6804E+06
   3336      1     38     66       0.000          0.6804E+06
   3337      1     38     67       0.000          0.6804E+06
   3338      1     38     68       0.000          0.6804E+06
   3339      1     38     69       0.000          0.6804E+06
   3340      1     38     70       0.000          0.6804E+06
   3341      1     38     71       0.000          0.6804E+06
   3342      1     38     72       0.000          0.6804E+06
   3343      1     38     73       0.000          0.6804E+06
   3344      1     38     74       0.000          0.6804E+06
   3345      1     38     75       0.000          0.6804E+06
   3346      1     38     76       0.000          0.6804E+06
   3347      1     38     77       0.000          0.6804E+06
   3348      1     38     78       0.000          0.6804E+06
   3349      1     38     79      0.2886E-02      0.6804E+06
   3350      1     38     80      0.1388E-01      0.6804E+06
   3351      1     38     81      0.2917E-01      0.6804E+06
   3352      1     38     82      0.4258E-01      0.6804E+06
   3353      1     38     83      0.5246E-01      0.6804E+06
   3354      1     38     84      0.6075E-01      0.6804E+06
   3355      1     38     85      0.6428E-01      0.6804E+06
   3356      1     38     86      0.6550E-01      0.6804E+06
   3357      1     38     87      0.6531E-01      0.6804E+06
   3358      1     38     88      0.6494E-01      0.6804E+06
   3359      1     38     89      0.6507E-01      0.6804E+06
   3360      1     38     90      0.6544E-01      0.6804E+06
   3361      1     38     91      0.6572E-01      0.6804E+06
   3362      1     38     92      0.6587E-01      0.6804E+06
   3363      1     38     93      0.6578E-01      0.6804E+06
   3364      1     38     94      0.6534E-01      0.6804E+06
   3365      1     38     95      0.6474E-01      0.6804E+06
   3366      1     38     96      0.6417E-01      0.6804E+06
   3367      1     38     97      0.6358E-01      0.6804E+06
   3368      1     38     98      0.6338E-01      0.6804E+06
   3369      1     38     99      0.6326E-01      0.6804E+06
   3370      1     38    100      0.6322E-01      0.6804E+06
   3371      1     39      1      0.6106          0.6804E+06
   3372      1     39      2      0.5812          0.6804E+06
   3373      1     39      3      0.5546          0.6804E+06
   3374      1     39      4      0.5241          0.6804E+06
   3375      1     39      5      0.4944          0.6804E+06
   3376      1     39      6      0.4698          0.6804E+06
   3377      1     39      7      0.4435          0.6804E+06
   3378      1     39      8      0.4189          0.6804E+06
   3379      1     39      9      0.3984          0.6804E+06
   3380      1     39     10      0.3756          0.6804E+06
   3381      1     39     11      0.3558          0.6804E+06
   3382      1     39     12      0.3318          0.6804E+06
   3383      1     39     13      0.3043          0.6804E+06
   3384      1     39     14      0.2759          0.6804E+06
   3385      1     39     15      0.2425          0.6804E+06
   3386      1     39     16      0.2142          0.6804E+06
   3387      1     39     17      0.1847          0.6804E+06
   3388      1     39     18      0.1597          0.6804E+06
   3389      1     39     19      0.1401          0.6804E+06
   3390      1     39     20      0.1221          0.6804E+06
   3391      1     39     21      0.1107          0.6804E+06
   3392      1     39     22      0.1073          0.6804E+06
   3393      1     39     23      0.1032          0.6804E+06
   3394      1     39     24      0.9753E-01      0.6804E+06
   3395      1     39     25      0.8892E-01      0.6804E+06
   3396      1     39     26      0.7796E-01      0.6804E+06
   3397      1     39     27      0.6500E-01      0.6804E+06
   3398      1     39     28      0.4355E-01      0.6804E+06
   3399      1     39     29      0.1509E-01      0.6804E+06
   3400      1     39     58     -0.5574E-01      0.6804E+06
   3401      1     39     59     -0.5255E-01      0.6804E+06
   3402      1     39     60     -0.5170E-01      0.6804E+06
   3403      1     39     61     -0.5034E-01      0.6804E+06
   3404      1     39     62       0.000          0.6804E+06
   3405      1     39     63       0.000          0.6804E+06
   3406      1     39     64       0.000          0.6804E+06
   3407      1     39     65       0.000          0.6804E+06
   3408      1     39     66       0.000          0.6804E+06
   3409      1     39     67       0.000          0.6804E+06
   3410      1     39     68       0.000          0.6804E+06
   3411      1     39     69       0.000          0.6804E+06
   3412      1     39     70       0.000          0.6804E+06
   3413      1     39     71       0.000          0.6804E+06
   3414      1     39     72       0.000          0.6804E+06
   3415      1     39     73       0.000          0.6804E+06
   3416      1     39     74       0.000          0.6804E+06
   3417      1     39     75       0.000          0.6804E+06
   3418      1     39     76       0.000          0.6804E+06
   3419      1     39     77       0.000          0.6804E+06
   3420      1     39     78       0.000          0.6804E+06
   3421      1     39     79       0.000          0.6804E+06
   3422      1     39     80      0.1066E-01      0.6804E+06
   3423      1     39     81      0.2790E-01      0.6804E+06
   3424      1     39     82      0.4297E-01      0.6804E+06
   3425      1     39     83      0.5376E-01      0.6804E+06
   3426      1     39     84      0.6223E-01      0.6804E+06
   3427      1     39     85      0.6521E-01      0.6804E+06
   3428      1     39     86      0.6591E-01      0.6804E+06
   3429      1     39     87      0.6528E-01      0.6804E+06
   3430      1     39     88      0.6462E-01      0.6804E+06
   3431      1     39     89      0.6478E-01      0.6804E+06
   3432      1     39     90      0.6514E-01      0.6804E+06
   3433      1     39     91      0.6542E-01      0.6804E+06
   3434      1     39     92      0.6554E-01      0.6804E+06
   3435      1     39     93      0.6535E-01      0.6804E+06
   3436      1     39     94      0.6482E-01      0.6804E+06
   3437      1     39     95      0.6430E-01      0.6804E+06
   3438      1     39     96      0.6387E-01      0.6804E+06
   3439      1     39     97      0.6341E-01      0.6804E+06
   3440      1     39     98      0.6321E-01      0.6804E+06
   3441      1     39     99      0.6311E-01      0.6804E+06
   3442      1     39    100      0.6326E-01      0.6804E+06
   3443      1     40      1      0.6157          0.6804E+06
   3444      1     40      2      0.5839          0.6804E+06
   3445      1     40      3      0.5554          0.6804E+06
   3446      1     40      4      0.5228          0.6804E+06
   3447      1     40      5      0.4915          0.6804E+06
   3448      1     40      6      0.4663          0.6804E+06
   3449      1     40      7      0.4399          0.6804E+06
   3450      1     40      8      0.4156          0.6804E+06
   3451      1     40      9      0.3957          0.6804E+06
   3452      1     40     10      0.3736          0.6804E+06
   3453      1     40     11      0.3539          0.6804E+06
   3454      1     40     12      0.3300          0.6804E+06
   3455      1     40     13      0.3033          0.6804E+06
   3456      1     40     14      0.2770          0.6804E+06
   3457      1     40     15      0.2458          0.6804E+06
   3458      1     40     16      0.2190          0.6804E+06
   3459      1     40     17      0.1901          0.6804E+06
   3460      1     40     18      0.1639          0.6804E+06
   3461      1     40     19      0.1386          0.6804E+06
   3462      1     40     20      0.1114          0.6804E+06
   3463      1     40     21      0.9120E-01      0.6804E+06
   3464      1     40     22      0.8318E-01      0.6804E+06
   3465      1     40     23      0.8053E-01      0.6804E+06
   3466      1     40     24      0.7854E-01      0.6804E+06
   3467      1     40     25      0.7347E-01      0.6804E+06
   3468      1     40     26      0.6318E-01      0.6804E+06
   3469      1     40     27      0.4816E-01      0.6804E+06
   3470      1     40     28      0.2003E-01      0.6804E+06
   3471      1     40     58     -0.5780E-01      0.6804E+06
   3472      1     40     59     -0.5226E-01      0.6804E+06
   3473      1     40     60     -0.4942E-01      0.6804E+06
   3474      1     40     61       0.000          0.6804E+06
   3475      1     40     62       0.000          0.6804E+06
   3476      1     40     63       0.000          0.6804E+06
   3477      1     40     64       0.000          0.6804E+06
   3478      1     40     65       0.000          0.6804E+06
   3479      1     40     66       0.000          0.6804E+06
   3480      1     40     67       0.000          0.6804E+06
   3481      1     40     68       0.000          0.6804E+06
   3482      1     40     69       0.000          0.6804E+06
   3483      1     40     70       0.000          0.6804E+06
   3484      1     40     71       0.000          0.6804E+06
   3485      1     40     72       0.000          0.6804E+06
   3486      1     40     73       0.000          0.6804E+06
   3487      1     40     74       0.000          0.6804E+06
   3488      1     40     75       0.000          0.6804E+06
   3489      1     40     76       0.000          0.6804E+06
   3490      1     40     77       0.000          0.6804E+06
   3491      1     40     78       0.000          0.6804E+06
   3492      1     40     79       0.000          0.6804E+06
   3493      1     40     80      0.4358E-02      0.6804E+06
   3494      1     40     81      0.2614E-01      0.6804E+06
   3495      1     40     82      0.4355E-01      0.6804E+06
   3496      1     40     83      0.5502E-01      0.6804E+06
   3497      1     40     84      0.6320E-01      0.6804E+06
   3498      1     40     85      0.6600E-01      0.6804E+06
   3499      1     40     86      0.6648E-01      0.6804E+06
   3500      1     40     87      0.6553E-01      0.6804E+06
   3501      1     40     88      0.6460E-01      0.6804E+06
   3502      1     40     89      0.6468E-01      0.6804E+06
   3503      1     40     90      0.6496E-01      0.6804E+06
   3504      1     40     91      0.6516E-01      0.6804E+06
   3505      1     40     92      0.6512E-01      0.6804E+06
   3506      1     40     93      0.6470E-01      0.6804E+06
   3507      1     40     94      0.6424E-01      0.6804E+06
   3508      1     40     95      0.6388E-01      0.6804E+06
   3509      1     40     96      0.6362E-01      0.6804E+06
   3510      1     40     97      0.6335E-01      0.6804E+06
   3511      1     40     98      0.6319E-01      0.6804E+06
   3512      1     40     99      0.6333E-01      0.6804E+06
   3513      1     40    100      0.6359E-01      0.6804E+06
   3514      1     41      1      0.6200          0.6804E+06
   3515      1     41      2      0.5856          0.6804E+06
   3516      1     41      3      0.5551          0.6804E+06
   3517      1     41      4      0.5206          0.6804E+06
   3518      1     41      5      0.4879          0.6804E+06
   3519      1     41      6      0.4620          0.6804E+06
   3520      1     41      7      0.4355          0.6804E+06
   3521      1     41      8      0.4116          0.6804E+06
   3522      1     41      9      0.3922          0.6804E+06
   3523      1     41     10      0.3708          0.6804E+06
   3524      1     41     11      0.3518          0.6804E+06
   3525      1     41     12      0.3287          0.6804E+06
   3526      1     41     13      0.3028          0.6804E+06
   3527      1     41     14      0.2775          0.6804E+06
   3528      1     41     15      0.2472          0.6804E+06
   3529      1     41     16      0.2205          0.6804E+06
   3530      1     41     17      0.1905          0.6804E+06
   3531      1     41     18      0.1605          0.6804E+06
   3532      1     41     19      0.1316          0.6804E+06
   3533      1     41     20      0.9813E-01      0.6804E+06
   3534      1     41     21      0.6926E-01      0.6804E+06
   3535      1     41     22      0.5697E-01      0.6804E+06
   3536      1     41     23      0.5786E-01      0.6804E+06
   3537      1     41     24      0.6167E-01      0.6804E+06
   3538      1     41     25      0.6155E-01      0.6804E+06
   3539      1     41     26      0.5299E-01      0.6804E+06
   3540      1     41     27      0.3764E-01      0.6804E+06
   3541      1     41     28      0.4033E-02      0.6804E+06
   3542      1     41     58     -0.5797E-01      0.6804E+06
   3543      1     41     59     -0.5117E-01      0.6804E+06
   3544      1     41     60     -0.4610E-01      0.6804E+06
   3545      1     41     61       0.000          0.6804E+06
   3546      1     41     62       0.000          0.6804E+06
   3547      1     41     63       0.000          0.6804E+06
   3548      1     41     64       0.000          0.6804E+06
   3549      1     41     65       0.000          0.6804E+06
   3550      1     41     66       0.000          0.6804E+06
   3551      1     41     67       0.000          0.6804E+06
   3552      1     41     68       0.000          0.6804E+06
   3553      1     41     69       0.000          0.6804E+06
   3554      1     41     70       0.000          0.6804E+06
   3555      1     41     71       0.000          0.6804E+06
   3556      1     41     72       0.000          0.6804E+06
   3557      1     41     73       0.000          0.6804E+06
   3558      1     41     74       0.000          0.6804E+06
   3559      1     41     75       0.000          0.6804E+06
   3560      1     41     76       0.000          0.6804E+06
   3561      1     41     77       0.000          0.6804E+06
   3562      1     41     78       0.000          0.6804E+06
   3563      1     41     79       0.000          0.6804E+06
   3564      1     41     80      0.2738E-02      0.6804E+06
   3565      1     41     81      0.2637E-01      0.6804E+06
   3566      1     41     82      0.4534E-01      0.6804E+06
   3567      1     41     83      0.5728E-01      0.6804E+06
   3568      1     41     84      0.6478E-01      0.6804E+06
   3569      1     41     85      0.6705E-01      0.6804E+06
   3570      1     41     86      0.6728E-01      0.6804E+06
   3571      1     41     87      0.6635E-01      0.6804E+06
   3572      1     41     88      0.6540E-01      0.6804E+06
   3573      1     41     89      0.6501E-01      0.6804E+06
   3574      1     41     90      0.6488E-01      0.6804E+06
   3575      1     41     91      0.6482E-01      0.6804E+06
   3576      1     41     92      0.6455E-01      0.6804E+06
   3577      1     41     93      0.6397E-01      0.6804E+06
   3578      1     41     94      0.6378E-01      0.6804E+06
   3579      1     41     95      0.6361E-01      0.6804E+06
   3580      1     41     96      0.6342E-01      0.6804E+06
   3581      1     41     97      0.6326E-01      0.6804E+06
   3582      1     41     98      0.6311E-01      0.6804E+06
   3583      1     41     99      0.6343E-01      0.6804E+06
   3584      1     41    100      0.6384E-01      0.6804E+06
   3585      1     42      1      0.6243          0.6804E+06
   3586      1     42      2      0.5865          0.6804E+06
   3587      1     42      3      0.5534          0.6804E+06
   3588      1     42      4      0.5165          0.6804E+06
   3589      1     42      5      0.4823          0.6804E+06
   3590      1     42      6      0.4559          0.6804E+06
   3591      1     42      7      0.4292          0.6804E+06
   3592      1     42      8      0.4057          0.6804E+06
   3593      1     42      9      0.3871          0.6804E+06
   3594      1     42     10      0.3668          0.6804E+06
   3595      1     42     11      0.3489          0.6804E+06
   3596      1     42     12      0.3272          0.6804E+06
   3597      1     42     13      0.3023          0.6804E+06
   3598      1     42     14      0.2777          0.6804E+06
   3599      1     42     15      0.2479          0.6804E+06
   3600      1     42     16      0.2211          0.6804E+06
   3601      1     42     17      0.1897          0.6804E+06
   3602      1     42     18      0.1567          0.6804E+06
   3603      1     42     19      0.1257          0.6804E+06
   3604      1     42     20      0.8865E-01      0.6804E+06
   3605      1     42     21      0.5453E-01      0.6804E+06
   3606      1     42     22      0.3974E-01      0.6804E+06
   3607      1     42     23      0.4285E-01      0.6804E+06
   3608      1     42     24      0.5119E-01      0.6804E+06
   3609      1     42     25      0.5542E-01      0.6804E+06
   3610      1     42     26      0.4942E-01      0.6804E+06
   3611      1     42     27      0.3605E-01      0.6804E+06
   3612      1     42     28      0.5509E-02      0.6804E+06
   3613      1     42     57     -0.6526E-01      0.6804E+06
   3614      1     42     58     -0.5522E-01      0.6804E+06
   3615      1     42     59     -0.5115E-01      0.6804E+06
   3616      1     42     60     -0.4406E-01      0.6804E+06
   3617      1     42     61       0.000          0.6804E+06
   3618      1     42     62       0.000          0.6804E+06
   3619      1     42     63       0.000          0.6804E+06
   3620      1     42     64       0.000          0.6804E+06
   3621      1     42     65       0.000          0.6804E+06
   3622      1     42     66       0.000          0.6804E+06
   3623      1     42     67       0.000          0.6804E+06
   3624      1     42     68       0.000          0.6804E+06
   3625      1     42     69       0.000          0.6804E+06
   3626      1     42     70       0.000          0.6804E+06
   3627      1     42     71       0.000          0.6804E+06
   3628      1     42     72       0.000          0.6804E+06
   3629      1     42     73       0.000          0.6804E+06
   3630      1     42     74       0.000          0.6804E+06
   3631      1     42     75       0.000          0.6804E+06
   3632      1     42     76       0.000          0.6804E+06
   3633      1     42     77       0.000          0.6804E+06
   3634      1     42     78       0.000          0.6804E+06
   3635      1     42     79       0.000          0.6804E+06
   3636      1     42     80      0.6835E-02      0.6804E+06
   3637      1     42     81      0.2985E-01      0.6804E+06
   3638      1     42     82      0.4835E-01      0.6804E+06
   3639      1     42     83      0.5979E-01      0.6804E+06
   3640      1     42     84      0.6652E-01      0.6804E+06
   3641      1     42     85      0.6833E-01      0.6804E+06
   3642      1     42     86      0.6828E-01      0.6804E+06
   3643      1     42     87      0.6724E-01      0.6804E+06
   3644      1     42     88      0.6615E-01      0.6804E+06
   3645      1     42     89      0.6532E-01      0.6804E+06
   3646      1     42     90      0.6490E-01      0.6804E+06
   3647      1     42     91      0.6444E-01      0.6804E+06
   3648      1     42     92      0.6375E-01      0.6804E+06
   3649      1     42     93      0.6347E-01      0.6804E+06
   3650      1     42     94      0.6335E-01      0.6804E+06
   3651      1     42     95      0.6322E-01      0.6804E+06
   3652      1     42     96      0.6309E-01      0.6804E+06
   3653      1     42     97      0.6294E-01      0.6804E+06
   3654      1     42     98      0.6281E-01      0.6804E+06
   3655      1     42     99      0.6319E-01      0.6804E+06
   3656      1     42    100      0.6388E-01      0.6804E+06
   3657      1     43      1      0.6271          0.6804E+06
   3658      1     43      2      0.5860          0.6804E+06
   3659      1     43      3      0.5499          0.6804E+06
   3660      1     43      4      0.5102          0.6804E+06
   3661      1     43      5      0.4744          0.6804E+06
   3662      1     43      6      0.4474          0.6804E+06
   3663      1     43      7      0.4211          0.6804E+06
   3664      1     43      8      0.3985          0.6804E+06
   3665      1     43      9      0.3810          0.6804E+06
   3666      1     43     10      0.3620          0.6804E+06
   3667      1     43     11      0.3454          0.6804E+06
   3668      1     43     12      0.3250          0.6804E+06
   3669      1     43     13      0.3014          0.6804E+06
   3670      1     43     14      0.2777          0.6804E+06
   3671      1     43     15      0.2486          0.6804E+06
   3672      1     43     16      0.2218          0.6804E+06
   3673      1     43     17      0.1899          0.6804E+06
   3674      1     43     18      0.1560          0.6804E+06
   3675      1     43     19      0.1248          0.6804E+06
   3676      1     43     20      0.8877E-01      0.6804E+06
   3677      1     43     21      0.5680E-01      0.6804E+06
   3678      1     43     22      0.4287E-01      0.6804E+06
   3679      1     43     23      0.4420E-01      0.6804E+06
   3680      1     43     24      0.5142E-01      0.6804E+06
   3681      1     43     25      0.5615E-01      0.6804E+06
   3682      1     43     26      0.5316E-01      0.6804E+06
   3683      1     43     58     -0.5469E-01      0.6804E+06
   3684      1     43     59     -0.5139E-01      0.6804E+06
   3685      1     43     60       0.000          0.6804E+06
   3686      1     43     61       0.000          0.6804E+06
   3687      1     43     62       0.000          0.6804E+06
   3688      1     43     63       0.000          0.6804E+06
   3689      1     43     64       0.000          0.6804E+06
   3690      1     43     65       0.000          0.6804E+06
   3691      1     43     66       0.000          0.6804E+06
   3692      1     43     67       0.000          0.6804E+06
   3693      1     43     68       0.000          0.6804E+06
   3694      1     43     69       0.000          0.6804E+06
   3695      1     43     70       0.000          0.6804E+06
   3696      1     43     71       0.000          0.6804E+06
   3697      1     43     72       0.000          0.6804E+06
   3698      1     43     73       0.000          0.6804E+06
   3699      1     43     74       0.000          0.6804E+06
   3700      1     43     75       0.000          0.6804E+06
   3701      1     43     76       0.000          0.6804E+06
   3702      1     43     77       0.000          0.6804E+06
   3703      1     43     78       0.000          0.6804E+06
   3704      1     43     79       0.000          0.6804E+06
   3705      1     43     80      0.1676E-01      0.6804E+06
   3706      1     43     81      0.3708E-01      0.6804E+06
   3707      1     43     82      0.5298E-01      0.6804E+06
   3708      1     43     83      0.6277E-01      0.6804E+06
   3709      1     43     84      0.6843E-01      0.6804E+06
   3710      1     43     85      0.6982E-01      0.6804E+06
   3711      1     43     86      0.6933E-01      0.6804E+06
   3712      1     43     87      0.6783E-01      0.6804E+06
   3713      1     43     88      0.6638E-01      0.6804E+06
   3714      1     43     89      0.6507E-01      0.6804E+06
   3715      1     43     90      0.6442E-01      0.6804E+06
   3716      1     43     91      0.6399E-01      0.6804E+06
   3717      1     43     92      0.6350E-01      0.6804E+06
   3718      1     43     93      0.6326E-01      0.6804E+06
   3719      1     43     94      0.6309E-01      0.6804E+06
   3720      1     43     95      0.6287E-01      0.6804E+06
   3721      1     43     96      0.6266E-01      0.6804E+06
   3722      1     43     97      0.6267E-01      0.6804E+06
   3723      1     43     98      0.6299E-01      0.6804E+06
   3724      1     43     99      0.6362E-01      0.6804E+06
   3725      1     43    100      0.6436E-01      0.6804E+06
   3726      1     44      1      0.6289          0.6804E+06
   3727      1     44      2      0.5845          0.6804E+06
   3728      1     44      3      0.5454          0.6804E+06
   3729      1     44      4      0.5026          0.6804E+06
   3730      1     44      5      0.4648          0.6804E+06
   3731      1     44      6      0.4376          0.6804E+06
   3732      1     44      7      0.4120          0.6804E+06
   3733      1     44      8      0.3909          0.6804E+06
   3734      1     44      9      0.3748          0.6804E+06
   3735      1     44     10      0.3574          0.6804E+06
   3736      1     44     11      0.3419          0.6804E+06
   3737      1     44     12      0.3227          0.6804E+06
   3738      1     44     13      0.3002          0.6804E+06
   3739      1     44     14      0.2776          0.6804E+06
   3740      1     44     15      0.2495          0.6804E+06
   3741      1     44     16      0.2232          0.6804E+06
   3742      1     44     17      0.1919          0.6804E+06
   3743      1     44     18      0.1586          0.6804E+06
   3744      1     44     19      0.1286          0.6804E+06
   3745      1     44     20      0.9548E-01      0.6804E+06
   3746      1     44     21      0.6861E-01      0.6804E+06
   3747      1     44     22      0.5639E-01      0.6804E+06
   3748      1     44     23      0.5424E-01      0.6804E+06
   3749      1     44     24      0.5758E-01      0.6804E+06
   3750      1     44     25      0.6075E-01      0.6804E+06
   3751      1     44     58     -0.5545E-01      0.6804E+06
   3752      1     44     59     -0.5118E-01      0.6804E+06
   3753      1     44     60       0.000          0.6804E+06
   3754      1     44     61       0.000          0.6804E+06
   3755      1     44     62       0.000          0.6804E+06
   3756      1     44     63       0.000          0.6804E+06
   3757      1     44     64       0.000          0.6804E+06
   3758      1     44     65       0.000          0.6804E+06
   3759      1     44     66       0.000          0.6804E+06
   3760      1     44     67       0.000          0.6804E+06
   3761      1     44     68       0.000          0.6804E+06
   3762      1     44     69       0.000          0.6804E+06
   3763      1     44     70       0.000          0.6804E+06
   3764      1     44     71       0.000          0.6804E+06
   3765      1     44     72       0.000          0.6804E+06
   3766      1     44     73       0.000          0.6804E+06
   3767      1     44     74       0.000          0.6804E+06
   3768      1     44     75       0.000          0.6804E+06
   3769      1     44     76       0.000          0.6804E+06
   3770      1     44     77       0.000          0.6804E+06
   3771      1     44     78       0.000          0.6804E+06
   3772      1     44     79      0.9758E-02      0.6804E+06
   3773      1     44     80      0.2919E-01      0.6804E+06
   3774      1     44     81      0.4648E-01      0.6804E+06
   3775      1     44     82      0.5915E-01      0.6804E+06
   3776      1     44     83      0.6663E-01      0.6804E+06
   3777      1     44     84      0.7079E-01      0.6804E+06
   3778      1     44     85      0.7158E-01      0.6804E+06
   3779      1     44     86      0.7042E-01      0.6804E+06
   3780      1     44     87      0.6816E-01      0.6804E+06
   3781      1     44     88      0.6618E-01      0.6804E+06
   3782      1     44     89      0.6466E-01      0.6804E+06
   3783      1     44     90      0.6404E-01      0.6804E+06
   3784      1     44     91      0.6382E-01      0.6804E+06
   3785      1     44     92      0.6360E-01      0.6804E+06
   3786      1     44     93      0.6335E-01      0.6804E+06
   3787      1     44     94      0.6301E-01      0.6804E+06
   3788      1     44     95      0.6268E-01      0.6804E+06
   3789      1     44     96      0.6252E-01      0.6804E+06
   3790      1     44     97      0.6256E-01      0.6804E+06
   3791      1     44     98      0.6314E-01      0.6804E+06
   3792      1     44     99      0.6399E-01      0.6804E+06
   3793      1     44    100      0.6485E-01      0.6804E+06
   3794      1     45      1      0.6309          0.6804E+06
   3795      1     45      2      0.5825          0.6804E+06
   3796      1     45      3      0.5394          0.6804E+06
   3797      1     45      4      0.4919          0.6804E+06
   3798      1     45      5      0.4508          0.6804E+06
   3799      1     45      6      0.4237          0.6804E+06
   3800      1     45      7      0.4003          0.6804E+06
   3801      1     45      8      0.3816          0.6804E+06
   3802      1     45      9      0.3674          0.6804E+06
   3803      1     45     10      0.3522          0.6804E+06
   3804      1     45     11      0.3385          0.6804E+06
   3805      1     45     12      0.3211          0.6804E+06
   3806      1     45     13      0.3000          0.6804E+06
   3807      1     45     14      0.2785          0.6804E+06
   3808      1     45     15      0.2514          0.6804E+06
   3809      1     45     16      0.2259          0.6804E+06
   3810      1     45     17      0.1956          0.6804E+06
   3811      1     45     18      0.1639          0.6804E+06
   3812      1     45     19      0.1352          0.6804E+06
   3813      1     45     20      0.1040          0.6804E+06
   3814      1     45     21      0.8058E-01      0.6804E+06
   3815      1     45     22      0.6985E-01      0.6804E+06
   3816      1     45     23      0.6611E-01      0.6804E+06
   3817      1     45     24      0.6714E-01      0.6804E+06
   3818      1     45     25      0.6874E-01      0.6804E+06
   3819      1     45     58     -0.5572E-01      0.6804E+06
   3820      1     45     59     -0.5058E-01      0.6804E+06
   3821      1     45     60       0.000          0.6804E+06
   3822      1     45     61       0.000          0.6804E+06
   3823      1     45     62       0.000          0.6804E+06
   3824      1     45     63       0.000          0.6804E+06
   3825      1     45     64       0.000          0.6804E+06
   3826      1     45     65       0.000          0.6804E+06
   3827      1     45     66       0.000          0.6804E+06
   3828      1     45     67       0.000          0.6804E+06
   3829      1     45     68       0.000          0.6804E+06
   3830      1     45     69       0.000          0.6804E+06
   3831      1     45     70       0.000          0.6804E+06
   3832      1     45     71       0.000          0.6804E+06
   3833      1     45     72       0.000          0.6804E+06
   3834      1     45     73       0.000          0.6804E+06
   3835      1     45     74       0.000          0.6804E+06
   3836      1     45     75       0.000          0.6804E+06
   3837      1     45     76       0.000          0.6804E+06
   3838      1     45     77       0.000          0.6804E+06
   3839      1     45     78      0.8691E-02      0.6804E+06
   3840      1     45     79      0.2846E-01      0.6804E+06
   3841      1     45     80      0.4638E-01      0.6804E+06
   3842      1     45     81      0.6039E-01      0.6804E+06
   3843      1     45     82      0.6919E-01      0.6804E+06
   3844      1     45     83      0.7359E-01      0.6804E+06
   3845      1     45     84      0.7522E-01      0.6804E+06
   3846      1     45     85      0.7465E-01      0.6804E+06
   3847      1     45     86      0.7222E-01      0.6804E+06
   3848      1     45     87      0.6868E-01      0.6804E+06
   3849      1     45     88      0.6579E-01      0.6804E+06
   3850      1     45     89      0.6454E-01      0.6804E+06
   3851      1     45     90      0.6439E-01      0.6804E+06
   3852      1     45     91      0.6441E-01      0.6804E+06
   3853      1     45     92      0.6419E-01      0.6804E+06
   3854      1     45     93      0.6374E-01      0.6804E+06
   3855      1     45     94      0.6307E-01      0.6804E+06
   3856      1     45     95      0.6265E-01      0.6804E+06
   3857      1     45     96      0.6259E-01      0.6804E+06
   3858      1     45     97      0.6267E-01      0.6804E+06
   3859      1     45     98      0.6335E-01      0.6804E+06
   3860      1     45     99      0.6438E-01      0.6804E+06
   3861      1     45    100      0.6549E-01      0.6804E+06
   3862      1     46      1      0.6333          0.6804E+06
   3863      1     46      2      0.5811          0.6804E+06
   3864      1     46      3      0.5343          0.6804E+06
   3865      1     46      4      0.4823          0.6804E+06
   3866      1     46      5      0.4381          0.6804E+06
   3867      1     46      6      0.4111          0.6804E+06
   3868      1     46      7      0.3899          0.6804E+06
   3869      1     46      8      0.3733          0.6804E+06
   3870      1     46      9      0.3609          0.6804E+06
   3871      1     46     10      0.3478          0.6804E+06
   3872      1     46     11      0.3360          0.6804E+06
   3873      1     46     12      0.3208          0.6804E+06
   3874      1     46     13      0.3008          0.6804E+06
   3875      1     46     14      0.2799          0.6804E+06
   3876      1     46     15      0.2535          0.6804E+06
   3877      1     46     16      0.2288          0.6804E+06
   3878      1     46     17      0.1991          0.6804E+06
   3879      1     46     18      0.1679          0.6804E+06
   3880      1     46     19      0.1400          0.6804E+06
   3881      1     46     20      0.1101          0.6804E+06
   3882      1     46     21      0.8840E-01      0.6804E+06
   3883      1     46     22      0.7844E-01      0.6804E+06
   3884      1     46     23      0.7441E-01      0.6804E+06
   3885      1     46     24      0.7467E-01      0.6804E+06
   3886      1     46     58     -0.5501E-01      0.6804E+06
   3887      1     46     59     -0.5001E-01      0.6804E+06
   3888      1     46     60       0.000          0.6804E+06
   3889      1     46     61       0.000          0.6804E+06
   3890      1     46     62       0.000          0.6804E+06
   3891      1     46     63       0.000          0.6804E+06
   3892      1     46     64       0.000          0.6804E+06
   3893      1     46     65       0.000          0.6804E+06
   3894      1     46     66       0.000          0.6804E+06
   3895      1     46     67       0.000          0.6804E+06
   3896      1     46     68       0.000          0.6804E+06
   3897      1     46     69       0.000          0.6804E+06
   3898      1     46     70       0.000          0.6804E+06
   3899      1     46     71       0.000          0.6804E+06
   3900      1     46     72       0.000          0.6804E+06
   3901      1     46     73       0.000          0.6804E+06
   3902      1     46     74       0.000          0.6804E+06
   3903      1     46     75       0.000          0.6804E+06
   3904      1     46     76       0.000          0.6804E+06
   3905      1     46     77      0.7908E-02      0.6804E+06
   3906      1     46     78      0.2555E-01      0.6804E+06
   3907      1     46     79      0.4599E-01      0.6804E+06
   3908      1     46     80      0.6374E-01      0.6804E+06
   3909      1     46     81      0.7417E-01      0.6804E+06
   3910      1     46     82      0.7869E-01      0.6804E+06
   3911      1     46     83      0.8019E-01      0.6804E+06
   3912      1     46     84      0.7972E-01      0.6804E+06
   3913      1     46     85      0.7811E-01      0.6804E+06
   3914      1     46     86      0.7472E-01      0.6804E+06
   3915      1     46     87      0.7008E-01      0.6804E+06
   3916      1     46     88      0.6631E-01      0.6804E+06
   3917      1     46     89      0.6561E-01      0.6804E+06
   3918      1     46     90      0.6593E-01      0.6804E+06
   3919      1     46     91      0.6608E-01      0.6804E+06
   3920      1     46     92      0.6569E-01      0.6804E+06
   3921      1     46     93      0.6435E-01      0.6804E+06
   3922      1     46     94      0.6333E-01      0.6804E+06
   3923      1     46     95      0.6289E-01      0.6804E+06
   3924      1     46     96      0.6277E-01      0.6804E+06
   3925      1     46     97      0.6300E-01      0.6804E+06
   3926      1     46     98      0.6365E-01      0.6804E+06
   3927      1     46     99      0.6472E-01      0.6804E+06
   3928      1     46    100      0.6612E-01      0.6804E+06
   3929      1     47      1      0.6372          0.6804E+06
   3930      1     47      2      0.5806          0.6804E+06
   3931      1     47      3      0.5303          0.6804E+06
   3932      1     47      4      0.4750          0.6804E+06
   3933      1     47      5      0.4283          0.6804E+06
   3934      1     47      6      0.4004          0.6804E+06
   3935      1     47      7      0.3800          0.6804E+06
   3936      1     47      8      0.3647          0.6804E+06
   3937      1     47      9      0.3538          0.6804E+06
   3938      1     47     10      0.3428          0.6804E+06
   3939      1     47     11      0.3333          0.6804E+06
   3940      1     47     12      0.3206          0.6804E+06
   3941      1     47     13      0.3020          0.6804E+06
   3942      1     47     14      0.2818          0.6804E+06
   3943      1     47     15      0.2562          0.6804E+06
   3944      1     47     16      0.2323          0.6804E+06
   3945      1     47     17      0.2032          0.6804E+06
   3946      1     47     18      0.1722          0.6804E+06
   3947      1     47     19      0.1443          0.6804E+06
   3948      1     47     20      0.1142          0.6804E+06
   3949      1     47     21      0.9314E-01      0.6804E+06
   3950      1     47     22      0.8448E-01      0.6804E+06
   3951      1     47     23      0.8120E-01      0.6804E+06
   3952      1     47     24      0.8104E-01      0.6804E+06
   3953      1     47     58     -0.5369E-01      0.6804E+06
   3954      1     47     59     -0.5154E-01      0.6804E+06
   3955      1     47     60       0.000          0.6804E+06
   3956      1     47     61       0.000          0.6804E+06
   3957      1     47     62       0.000          0.6804E+06
   3958      1     47     63       0.000          0.6804E+06
   3959      1     47     64       0.000          0.6804E+06
   3960      1     47     65       0.000          0.6804E+06
   3961      1     47     66       0.000          0.6804E+06
   3962      1     47     67       0.000          0.6804E+06
   3963      1     47     68       0.000          0.6804E+06
   3964      1     47     69       0.000          0.6804E+06
   3965      1     47     70       0.000          0.6804E+06
   3966      1     47     71       0.000          0.6804E+06
   3967      1     47     72       0.000          0.6804E+06
   3968      1     47     73       0.000          0.6804E+06
   3969      1     47     74       0.000          0.6804E+06
   3970      1     47     75       0.000          0.6804E+06
   3971      1     47     76       0.000          0.6804E+06
   3972      1     47     77      0.1581E-01      0.6804E+06
   3973      1     47     78      0.4050E-01      0.6804E+06
   3974      1     47     79      0.6354E-01      0.6804E+06
   3975      1     47     80      0.8014E-01      0.6804E+06
   3976      1     47     81      0.8707E-01      0.6804E+06
   3977      1     47     82      0.8779E-01      0.6804E+06
   3978      1     47     83      0.8671E-01      0.6804E+06
   3979      1     47     84      0.8422E-01      0.6804E+06
   3980      1     47     85      0.8200E-01      0.6804E+06
   3981      1     47     86      0.7849E-01      0.6804E+06
   3982      1     47     87      0.7391E-01      0.6804E+06
   3983      1     47     88      0.7041E-01      0.6804E+06
   3984      1     47     89      0.6935E-01      0.6804E+06
   3985      1     47     90      0.6884E-01      0.6804E+06
   3986      1     47     91      0.6821E-01      0.6804E+06
   3987      1     47     92      0.6723E-01      0.6804E+06
   3988      1     47     93      0.6591E-01      0.6804E+06
   3989      1     47     94      0.6462E-01      0.6804E+06
   3990      1     47     95      0.6372E-01      0.6804E+06
   3991      1     47     96      0.6328E-01      0.6804E+06
   3992      1     47     97      0.6335E-01      0.6804E+06
   3993      1     47     98      0.6391E-01      0.6804E+06
   3994      1     47     99      0.6510E-01      0.6804E+06
   3995      1     47    100      0.6690E-01      0.6804E+06
   3996      1     48      1      0.6411          0.6804E+06
   3997      1     48      2      0.5810          0.6804E+06
   3998      1     48      3      0.5283          0.6804E+06
   3999      1     48      4      0.4719          0.6804E+06
   4000      1     48      5      0.4251          0.6804E+06
   4001      1     48      6      0.3953          0.6804E+06
   4002      1     48      7      0.3723          0.6804E+06
   4003      1     48      8      0.3567          0.6804E+06
   4004      1     48      9      0.3469          0.6804E+06
   4005      1     48     10      0.3377          0.6804E+06
   4006      1     48     11      0.3297          0.6804E+06
   4007      1     48     12      0.3184          0.6804E+06
   4008      1     48     13      0.3018          0.6804E+06
   4009      1     48     14      0.2831          0.6804E+06
   4010      1     48     15      0.2587          0.6804E+06
   4011      1     48     16      0.2356          0.6804E+06
   4012      1     48     17      0.2078          0.6804E+06
   4013      1     48     18      0.1774          0.6804E+06
   4014      1     48     19      0.1486          0.6804E+06
   4015      1     48     20      0.1161          0.6804E+06
   4016      1     48     21      0.9436E-01      0.6804E+06
   4017      1     48     22      0.8738E-01      0.6804E+06
   4018      1     48     23      0.8581E-01      0.6804E+06
   4019      1     48     24      0.8545E-01      0.6804E+06
   4020      1     48     58     -0.4684E-01      0.6804E+06
   4021      1     48     59     -0.4970E-01      0.6804E+06
   4022      1     48     60       0.000          0.6804E+06
   4023      1     48     61       0.000          0.6804E+06
   4024      1     48     62       0.000          0.6804E+06
   4025      1     48     63       0.000          0.6804E+06
   4026      1     48     64       0.000          0.6804E+06
   4027      1     48     65       0.000          0.6804E+06
   4028      1     48     66       0.000          0.6804E+06
   4029      1     48     67       0.000          0.6804E+06
   4030      1     48     68       0.000          0.6804E+06
   4031      1     48     69       0.000          0.6804E+06
   4032      1     48     70       0.000          0.6804E+06
   4033      1     48     71       0.000          0.6804E+06
   4034      1     48     72       0.000          0.6804E+06
   4035      1     48     73       0.000          0.6804E+06
   4036      1     48     74       0.000          0.6804E+06
   4037      1     48     75       0.000          0.6804E+06
   4038      1     48     76       0.000          0.6804E+06
   4039      1     48     77      0.2057E-01      0.6804E+06
   4040      1     48     78      0.5094E-01      0.6804E+06
   4041      1     48     79      0.7419E-01      0.6804E+06
   4042      1     48     80      0.8650E-01      0.6804E+06
   4043      1     48     81      0.9218E-01      0.6804E+06
   4044      1     48     82      0.9262E-01      0.6804E+06
   4045      1     48     83      0.9068E-01      0.6804E+06
   4046      1     48     84      0.8726E-01      0.6804E+06
   4047      1     48     85      0.8525E-01      0.6804E+06
   4048      1     48     86      0.8264E-01      0.6804E+06
   4049      1     48     87      0.7914E-01      0.6804E+06
   4050      1     48     88      0.7656E-01      0.6804E+06
   4051      1     48     89      0.7440E-01      0.6804E+06
   4052      1     48     90      0.7256E-01      0.6804E+06
   4053      1     48     91      0.7109E-01      0.6804E+06
   4054      1     48     92      0.6944E-01      0.6804E+06
   4055      1     48     93      0.6789E-01      0.6804E+06
   4056      1     48     94      0.6611E-01      0.6804E+06
   4057      1     48     95      0.6456E-01      0.6804E+06
   4058      1     48     96      0.6361E-01      0.6804E+06
   4059      1     48     97      0.6340E-01      0.6804E+06
   4060      1     48     98      0.6396E-01      0.6804E+06
   4061      1     48     99      0.6543E-01      0.6804E+06
   4062      1     48    100      0.6775E-01      0.6804E+06
   4063      1     49      1      0.6445          0.6804E+06
   4064      1     49      2      0.5812          0.6804E+06
   4065      1     49      3      0.5260          0.6804E+06
   4066      1     49      4      0.4680          0.6804E+06
   4067      1     49      5      0.4202          0.6804E+06
   4068      1     49      6      0.3889          0.6804E+06
   4069      1     49      7      0.3645          0.6804E+06
   4070      1     49      8      0.3492          0.6804E+06
   4071      1     49      9      0.3404          0.6804E+06
   4072      1     49     10      0.3328          0.6804E+06
   4073      1     49     11      0.3263          0.6804E+06
   4074      1     49     12      0.3166          0.6804E+06
   4075      1     49     13      0.3015          0.6804E+06
   4076      1     49     14      0.2841          0.6804E+06
   4077      1     49     15      0.2606          0.6804E+06
   4078      1     49     16      0.2384          0.6804E+06
   4079      1     49     17      0.2125          0.6804E+06
   4080      1     49     18      0.1836          0.6804E+06
   4081      1     49     19      0.1544          0.6804E+06
   4082      1     49     20      0.1186          0.6804E+06
   4083      1     49     21      0.9563E-01      0.6804E+06
   4084      1     49     22      0.8942E-01      0.6804E+06
   4085      1     49     23      0.8890E-01      0.6804E+06
   4086      1     49     24      0.8791E-01      0.6804E+06
   4087      1     49     58     -0.3985E-01      0.6804E+06
   4088      1     49     59     -0.4826E-01      0.6804E+06
   4089      1     49     60       0.000          0.6804E+06
   4090      1     49     61       0.000          0.6804E+06
   4091      1     49     62       0.000          0.6804E+06
   4092      1     49     63       0.000          0.6804E+06
   4093      1     49     64       0.000          0.6804E+06
   4094      1     49     65       0.000          0.6804E+06
   4095      1     49     66       0.000          0.6804E+06
   4096      1     49     67       0.000          0.6804E+06
   4097      1     49     68       0.000          0.6804E+06
   4098      1     49     69       0.000          0.6804E+06
   4099      1     49     70       0.000          0.6804E+06
   4100      1     49     71       0.000          0.6804E+06
   4101      1     49     72       0.000          0.6804E+06
   4102      1     49     73       0.000          0.6804E+06
   4103      1     49     74       0.000          0.6804E+06
   4104      1     49     75       0.000          0.6804E+06
   4105      1     49     76       0.000          0.6804E+06
   4106      1     49     77      0.2617E-01      0.6804E+06
   4107      1     49     78      0.5977E-01      0.6804E+06
   4108      1     49     79      0.8224E-01      0.6804E+06
   4109      1     49     80      0.9056E-01      0.6804E+06
   4110      1     49     81      0.9371E-01      0.6804E+06
   4111      1     49     82      0.9331E-01      0.6804E+06
   4112      1     49     83      0.9132E-01      0.6804E+06
   4113      1     49     84      0.8868E-01      0.6804E+06
   4114      1     49     85      0.8744E-01      0.6804E+06
   4115      1     49     86      0.8587E-01      0.6804E+06
   4116      1     49     87      0.8338E-01      0.6804E+06
   4117      1     49     88      0.8144E-01      0.6804E+06
   4118      1     49     89      0.7867E-01      0.6804E+06
   4119      1     49     90      0.7617E-01      0.6804E+06
   4120      1     49     91      0.7440E-01      0.6804E+06
   4121      1     49     92      0.7222E-01      0.6804E+06
   4122      1     49     93      0.7004E-01      0.6804E+06
   4123      1     49     94      0.6758E-01      0.6804E+06
   4124      1     49     95      0.6541E-01      0.6804E+06
   4125      1     49     96      0.6392E-01      0.6804E+06
   4126      1     49     97      0.6339E-01      0.6804E+06
   4127      1     49     98      0.6404E-01      0.6804E+06
   4128      1     49     99      0.6595E-01      0.6804E+06
   4129      1     49    100      0.6881E-01      0.6804E+06
   4130      1     50      1      0.6484          0.6804E+06
   4131      1     50      2      0.5806          0.6804E+06
   4132      1     50      3      0.5216          0.6804E+06
   4133      1     50      4      0.4600          0.6804E+06
   4134      1     50      5      0.4096          0.6804E+06
   4135      1     50      6      0.3771          0.6804E+06
   4136      1     50      7      0.3532          0.6804E+06
   4137      1     50      8      0.3393          0.6804E+06
   4138      1     50      9      0.3323          0.6804E+06
   4139      1     50     10      0.3270          0.6804E+06
   4140      1     50     11      0.3229          0.6804E+06
   4141      1     50     12      0.3159          0.6804E+06
   4142      1     50     13      0.3022          0.6804E+06
   4143      1     50     14      0.2850          0.6804E+06
   4144      1     50     15      0.2614          0.6804E+06
   4145      1     50     16      0.2395          0.6804E+06
   4146      1     50     17      0.2147          0.6804E+06
   4147      1     50     18      0.1879          0.6804E+06
   4148      1     50     19      0.1614          0.6804E+06
   4149      1     50     20      0.1288          0.6804E+06
   4150      1     50     21      0.1070          0.6804E+06
   4151      1     50     22      0.9810E-01      0.6804E+06
   4152      1     50     23      0.9303E-01      0.6804E+06
   4153      1     50     24      0.8803E-01      0.6804E+06
   4154      1     50     25      0.7495E-01      0.6804E+06
   4155      1     50     58     -0.3243E-01      0.6804E+06
   4156      1     50     59       0.000          0.6804E+06
   4157      1     50     60       0.000          0.6804E+06
   4158      1     50     61       0.000          0.6804E+06
   4159      1     50     62       0.000          0.6804E+06
   4160      1     50     63       0.000          0.6804E+06
   4161      1     50     64       0.000          0.6804E+06
   4162      1     50     65       0.000          0.6804E+06
   4163      1     50     66       0.000          0.6804E+06
   4164      1     50     67       0.000          0.6804E+06
   4165      1     50     68       0.000          0.6804E+06
   4166      1     50     69       0.000          0.6804E+06
   4167      1     50     70       0.000          0.6804E+06
   4168      1     50     71       0.000          0.6804E+06
   4169      1     50     72       0.000          0.6804E+06
   4170      1     50     73       0.000          0.6804E+06
   4171      1     50     74       0.000          0.6804E+06
   4172      1     50     75       0.000          0.6804E+06
   4173      1     50     76       0.000          0.6804E+06
   4174      1     50     77      0.2622E-01      0.6804E+06
   4175      1     50     78      0.6102E-01      0.6804E+06
   4176      1     50     79      0.8206E-01      0.6804E+06
   4177      1     50     80      0.8855E-01      0.6804E+06
   4178      1     50     81      0.9105E-01      0.6804E+06
   4179      1     50     82      0.9102E-01      0.6804E+06
   4180      1     50     83      0.8983E-01      0.6804E+06
   4181      1     50     84      0.8921E-01      0.6804E+06
   4182      1     50     85      0.8859E-01      0.6804E+06
   4183      1     50     86      0.8761E-01      0.6804E+06
   4184      1     50     87      0.8664E-01      0.6804E+06
   4185      1     50     88      0.8608E-01      0.6804E+06
   4186      1     50     89      0.8334E-01      0.6804E+06
   4187      1     50     90      0.8048E-01      0.6804E+06
   4188      1     50     91      0.7860E-01      0.6804E+06
   4189      1     50     92      0.7598E-01      0.6804E+06
   4190      1     50     93      0.7338E-01      0.6804E+06
   4191      1     50     94      0.7021E-01      0.6804E+06
   4192      1     50     95      0.6711E-01      0.6804E+06
   4193      1     50     96      0.6480E-01      0.6804E+06
   4194      1     50     97      0.6365E-01      0.6804E+06
   4195      1     50     98      0.6446E-01      0.6804E+06
   4196      1     50     99      0.6716E-01      0.6804E+06
   4197      1     50    100      0.7078E-01      0.6804E+06
   4198      1     51      1      0.6524          0.6804E+06
   4199      1     51      2      0.5785          0.6804E+06
   4200      1     51      3      0.5145          0.6804E+06
   4201      1     51      4      0.4479          0.6804E+06
   4202      1     51      5      0.3935          0.6804E+06
   4203      1     51      6      0.3598          0.6804E+06
   4204      1     51      7      0.3389          0.6804E+06
   4205      1     51      8      0.3280          0.6804E+06
   4206      1     51      9      0.3233          0.6804E+06
   4207      1     51     10      0.3208          0.6804E+06
   4208      1     51     11      0.3194          0.6804E+06
   4209      1     51     12      0.3158          0.6804E+06
   4210      1     51     13      0.3028          0.6804E+06
   4211      1     51     14      0.2848          0.6804E+06
   4212      1     51     15      0.2597          0.6804E+06
   4213      1     51     16      0.2374          0.6804E+06
   4214      1     51     17      0.2126          0.6804E+06
   4215      1     51     18      0.1872          0.6804E+06
   4216      1     51     19      0.1642          0.6804E+06
   4217      1     51     20      0.1377          0.6804E+06
   4218      1     51     21      0.1180          0.6804E+06
   4219      1     51     22      0.1067          0.6804E+06
   4220      1     51     23      0.9668E-01      0.6804E+06
   4221      1     51     24      0.8690E-01      0.6804E+06
   4222      1     51     25      0.6720E-01      0.6804E+06
   4223      1     51     59       0.000          0.6804E+06
   4224      1     51     60       0.000          0.6804E+06
   4225      1     51     61       0.000          0.6804E+06
   4226      1     51     62       0.000          0.6804E+06
   4227      1     51     63       0.000          0.6804E+06
   4228      1     51     64       0.000          0.6804E+06
   4229      1     51     65       0.000          0.6804E+06
   4230      1     51     66       0.000          0.6804E+06
   4231      1     51     67       0.000          0.6804E+06
   4232      1     51     68       0.000          0.6804E+06
   4233      1     51     69       0.000          0.6804E+06
   4234      1     51     70       0.000          0.6804E+06
   4235      1     51     71       0.000          0.6804E+06
   4236      1     51     72       0.000          0.6804E+06
   4237      1     51     73       0.000          0.6804E+06
   4238      1     51     74       0.000          0.6804E+06
   4239      1     51     75       0.000          0.6804E+06
   4240      1     51     76       0.000          0.6804E+06
   4241      1     51     77      0.1992E-01      0.6804E+06
   4242      1     51     78      0.5330E-01      0.6804E+06
   4243      1     51     79      0.7253E-01      0.6804E+06
   4244      1     51     80      0.7934E-01      0.6804E+06
   4245      1     51     81      0.8335E-01      0.6804E+06
   4246      1     51     82      0.8528E-01      0.6804E+06
   4247      1     51     83      0.8566E-01      0.6804E+06
   4248      1     51     84      0.8673E-01      0.6804E+06
   4249      1     51     85      0.8706E-01      0.6804E+06
   4250      1     51     86      0.8713E-01      0.6804E+06
   4251      1     51     87      0.8749E-01      0.6804E+06
   4252      1     51     88      0.8754E-01      0.6804E+06
   4253      1     51     89      0.8595E-01      0.6804E+06
   4254      1     51     90      0.8414E-01      0.6804E+06
   4255      1     51     91      0.8279E-01      0.6804E+06
   4256      1     51     92      0.8023E-01      0.6804E+06
   4257      1     51     93      0.7771E-01      0.6804E+06
   4258      1     51     94      0.7434E-01      0.6804E+06
   4259      1     51     95      0.7050E-01      0.6804E+06
   4260      1     51     96      0.6706E-01      0.6804E+06
   4261      1     51     97      0.6477E-01      0.6804E+06
   4262      1     51     98      0.6573E-01      0.6804E+06
   4263      1     51     99      0.6979E-01      0.6804E+06
   4264      1     51    100      0.7431E-01      0.6804E+06
   4265      1     52      1      0.6540          0.6804E+06
   4266      1     52      2      0.5751          0.6804E+06
   4267      1     52      3      0.5075          0.6804E+06
   4268      1     52      4      0.4366          0.6804E+06
   4269      1     52      5      0.3773          0.6804E+06
   4270      1     52      6      0.3424          0.6804E+06
   4271      1     52      7      0.3261          0.6804E+06
   4272      1     52      8      0.3179          0.6804E+06
   4273      1     52      9      0.3149          0.6804E+06
   4274      1     52     10      0.3143          0.6804E+06
   4275      1     52     11      0.3148          0.6804E+06
   4276      1     52     12      0.3137          0.6804E+06
   4277      1     52     13      0.3010          0.6804E+06
   4278      1     52     14      0.2822          0.6804E+06
   4279      1     52     15      0.2558          0.6804E+06
   4280      1     52     16      0.2327          0.6804E+06
   4281      1     52     17      0.2073          0.6804E+06
   4282      1     52     18      0.1829          0.6804E+06
   4283      1     52     19      0.1628          0.6804E+06
   4284      1     52     20      0.1417          0.6804E+06
   4285      1     52     21      0.1245          0.6804E+06
   4286      1     52     22      0.1123          0.6804E+06
   4287      1     52     23      0.9941E-01      0.6804E+06
   4288      1     52     24      0.8616E-01      0.6804E+06
   4289      1     52     25      0.6153E-01      0.6804E+06
   4290      1     52     26      0.1179E-01      0.6804E+06
   4291      1     52     60       0.000          0.6804E+06
   4292      1     52     61       0.000          0.6804E+06
   4293      1     52     62       0.000          0.6804E+06
   4294      1     52     63       0.000          0.6804E+06
   4295      1     52     64       0.000          0.6804E+06
   4296      1     52     65       0.000          0.6804E+06
   4297      1     52     66       0.000          0.6804E+06
   4298      1     52     67       0.000          0.6804E+06
   4299      1     52     68       0.000          0.6804E+06
   4300      1     52     69       0.000          0.6804E+06
   4301      1     52     70       0.000          0.6804E+06
   4302      1     52     71       0.000          0.6804E+06
   4303      1     52     72       0.000          0.6804E+06
   4304      1     52     73       0.000          0.6804E+06
   4305      1     52     74       0.000          0.6804E+06
   4306      1     52     75       0.000          0.6804E+06
   4307      1     52     76       0.000          0.6804E+06
   4308      1     52     77      0.1572E-01      0.6804E+06
   4309      1     52     78      0.4284E-01      0.6804E+06
   4310      1     52     79      0.5901E-01      0.6804E+06
   4311      1     52     80      0.6666E-01      0.6804E+06
   4312      1     52     81      0.7299E-01      0.6804E+06
   4313      1     52     82      0.7746E-01      0.6804E+06
   4314      1     52     83      0.7968E-01      0.6804E+06
   4315      1     52     84      0.8252E-01      0.6804E+06
   4316      1     52     85      0.8423E-01      0.6804E+06
   4317      1     52     86      0.8557E-01      0.6804E+06
   4318      1     52     87      0.8694E-01      0.6804E+06
   4319      1     52     88      0.8758E-01      0.6804E+06
   4320      1     52     89      0.8741E-01      0.6804E+06
   4321      1     52     90      0.8709E-01      0.6804E+06
   4322      1     52     91      0.8682E-01      0.6804E+06
   4323      1     52     92      0.8502E-01      0.6804E+06
   4324      1     52     93      0.8294E-01      0.6804E+06
   4325      1     52     94      0.7981E-01      0.6804E+06
   4326      1     52     95      0.7585E-01      0.6804E+06
   4327      1     52     96      0.7188E-01      0.6804E+06
   4328      1     52     97      0.6865E-01      0.6804E+06
   4329      1     52     98      0.6960E-01      0.6804E+06
   4330      1     52     99      0.7478E-01      0.6804E+06
   4331      1     52    100      0.7955E-01      0.6804E+06
   4332      1     53      1      0.6516          0.6804E+06
   4333      1     53      2      0.5689          0.6804E+06
   4334      1     53      3      0.4989          0.6804E+06
   4335      1     53      4      0.4266          0.6804E+06
   4336      1     53      5      0.3680          0.6804E+06
   4337      1     53      6      0.3333          0.6804E+06
   4338      1     53      7      0.3159          0.6804E+06
   4339      1     53      8      0.3079          0.6804E+06
   4340      1     53      9      0.3056          0.6804E+06
   4341      1     53     10      0.3056          0.6804E+06
   4342      1     53     11      0.3059          0.6804E+06
   4343      1     53     12      0.3033          0.6804E+06
   4344      1     53     13      0.2912          0.6804E+06
   4345      1     53     14      0.2739          0.6804E+06
   4346      1     53     15      0.2486          0.6804E+06
   4347      1     53     16      0.2249          0.6804E+06
   4348      1     53     17      0.1988          0.6804E+06
   4349      1     53     18      0.1759          0.6804E+06
   4350      1     53     19      0.1590          0.6804E+06
   4351      1     53     20      0.1426          0.6804E+06
   4352      1     53     21      0.1282          0.6804E+06
   4353      1     53     22      0.1165          0.6804E+06
   4354      1     53     23      0.1024          0.6804E+06
   4355      1     53     24      0.8684E-01      0.6804E+06
   4356      1     53     25      0.5886E-01      0.6804E+06
   4357      1     53     26      0.2275E-01      0.6804E+06
   4358      1     53     27     -0.4083E-01      0.6804E+06
   4359      1     53     60       0.000          0.6804E+06
   4360      1     53     61       0.000          0.6804E+06
   4361      1     53     62       0.000          0.6804E+06
   4362      1     53     63       0.000          0.6804E+06
   4363      1     53     64       0.000          0.6804E+06
   4364      1     53     65       0.000          0.6804E+06
   4365      1     53     66       0.000          0.6804E+06
   4366      1     53     67       0.000          0.6804E+06
   4367      1     53     68       0.000          0.6804E+06
   4368      1     53     69       0.000          0.6804E+06
   4369      1     53     70       0.000          0.6804E+06
   4370      1     53     71       0.000          0.6804E+06
   4371      1     53     72       0.000          0.6804E+06
   4372      1     53     73       0.000          0.6804E+06
   4373      1     53     74       0.000          0.6804E+06
   4374      1     53     75       0.000          0.6804E+06
   4375      1     53     76       0.000          0.6804E+06
   4376      1     53     77      0.3067E-01      0.6804E+06
   4377      1     53     78      0.3098E-01      0.6804E+06
   4378      1     53     79      0.4053E-01      0.6804E+06
   4379      1     53     80      0.4985E-01      0.6804E+06
   4380      1     53     81      0.5936E-01      0.6804E+06
   4381      1     53     82      0.6622E-01      0.6804E+06
   4382      1     53     83      0.7034E-01      0.6804E+06
   4383      1     53     84      0.7698E-01      0.6804E+06
   4384      1     53     85      0.8097E-01      0.6804E+06
   4385      1     53     86      0.8344E-01      0.6804E+06
   4386      1     53     87      0.8571E-01      0.6804E+06
   4387      1     53     88      0.8765E-01      0.6804E+06
   4388      1     53     89      0.8923E-01      0.6804E+06
   4389      1     53     90      0.9073E-01      0.6804E+06
   4390      1     53     91      0.9206E-01      0.6804E+06
   4391      1     53     92      0.9175E-01      0.6804E+06
   4392      1     53     93      0.9055E-01      0.6804E+06
   4393      1     53     94      0.8819E-01      0.6804E+06
   4394      1     53     95      0.8493E-01      0.6804E+06
   4395      1     53     96      0.8153E-01      0.6804E+06
   4396      1     53     97      0.7871E-01      0.6804E+06
   4397      1     53     98      0.7956E-01      0.6804E+06
   4398      1     53     99      0.8438E-01      0.6804E+06
   4399      1     53    100      0.8848E-01      0.6804E+06
   4400      1     54      1      0.6457          0.6804E+06
   4401      1     54      2      0.5612          0.6804E+06
   4402      1     54      3      0.4902          0.6804E+06
   4403      1     54      4      0.4186          0.6804E+06
   4404      1     54      5      0.3628          0.6804E+06
   4405      1     54      6      0.3289          0.6804E+06
   4406      1     54      7      0.3089          0.6804E+06
   4407      1     54      8      0.3004          0.6804E+06
   4408      1     54      9      0.2982          0.6804E+06
   4409      1     54     10      0.2983          0.6804E+06
   4410      1     54     11      0.2982          0.6804E+06
   4411      1     54     12      0.2944          0.6804E+06
   4412      1     54     13      0.2827          0.6804E+06
   4413      1     54     14      0.2663          0.6804E+06
   4414      1     54     15      0.2418          0.6804E+06
   4415      1     54     16      0.2176          0.6804E+06
   4416      1     54     17      0.1901          0.6804E+06
   4417      1     54     18      0.1683          0.6804E+06
   4418      1     54     19      0.1550          0.6804E+06
   4419      1     54     20      0.1420          0.6804E+06
   4420      1     54     21      0.1300          0.6804E+06
   4421      1     54     22      0.1195          0.6804E+06
   4422      1     54     23      0.1059          0.6804E+06
   4423      1     54     24      0.9019E-01      0.6804E+06
   4424      1     54     25      0.6155E-01      0.6804E+06
   4425      1     54     26      0.2269E-01      0.6804E+06
   4426      1     54     27     -0.3953E-01      0.6804E+06
   4427      1     54     60       0.000          0.6804E+06
   4428      1     54     61       0.000          0.6804E+06
   4429      1     54     62       0.000          0.6804E+06
   4430      1     54     63       0.000          0.6804E+06
   4431      1     54     64       0.000          0.6804E+06
   4432      1     54     65       0.000          0.6804E+06
   4433      1     54     66       0.000          0.6804E+06
   4434      1     54     67       0.000          0.6804E+06
   4435      1     54     68       0.000          0.6804E+06
   4436      1     54     69       0.000          0.6804E+06
   4437      1     54     70       0.000          0.6804E+06
   4438      1     54     71       0.000          0.6804E+06
   4439      1     54     72       0.000          0.6804E+06
   4440      1     54     73       0.000          0.6804E+06
   4441      1     54     74       0.000          0.6804E+06
   4442      1     54     75       0.000          0.6804E+06
   4443      1     54     76       0.000          0.6804E+06
   4444      1     54     77       0.000          0.6804E+06
   4445      1     54     78      0.5129E-02      0.6804E+06
   4446      1     54     79      0.1917E-01      0.6804E+06
   4447      1     54     80      0.3284E-01      0.6804E+06
   4448      1     54     81      0.4660E-01      0.6804E+06
   4449      1     54     82      0.5659E-01      0.6804E+06
   4450      1     54     83      0.6343E-01      0.6804E+06
   4451      1     54     84      0.7243E-01      0.6804E+06
   4452      1     54     85      0.7830E-01      0.6804E+06
   4453      1     54     86      0.8232E-01      0.6804E+06
   4454      1     54     87      0.8526E-01      0.6804E+06
   4455      1     54     88      0.8826E-01      0.6804E+06
   4456      1     54     89      0.9161E-01      0.6804E+06
   4457      1     54     90      0.9485E-01      0.6804E+06
   4458      1     54     91      0.9743E-01      0.6804E+06
   4459      1     54     92      0.9865E-01      0.6804E+06
   4460      1     54     93      0.9860E-01      0.6804E+06
   4461      1     54     94      0.9746E-01      0.6804E+06
   4462      1     54     95      0.9557E-01      0.6804E+06
   4463      1     54     96      0.9364E-01      0.6804E+06
   4464      1     54     97      0.9232E-01      0.6804E+06
   4465      1     54     98      0.9299E-01      0.6804E+06
   4466      1     54     99      0.9595E-01      0.6804E+06
   4467      1     54    100      0.9876E-01      0.6804E+06
   4468      1     55      1      0.6371          0.6804E+06
   4469      1     55      2      0.5506          0.6804E+06
   4470      1     55      3      0.4782          0.6804E+06
   4471      1     55      4      0.4064          0.6804E+06
   4472      1     55      5      0.3519          0.6804E+06
   4473      1     55      6      0.3198          0.6804E+06
   4474      1     55      7      0.3006          0.6804E+06
   4475      1     55      8      0.2928          0.6804E+06
   4476      1     55      9      0.2910          0.6804E+06
   4477      1     55     10      0.2914          0.6804E+06
   4478      1     55     11      0.2914          0.6804E+06
   4479      1     55     12      0.2875          0.6804E+06
   4480      1     55     13      0.2758          0.6804E+06
   4481      1     55     14      0.2597          0.6804E+06
   4482      1     55     15      0.2356          0.6804E+06
   4483      1     55     16      0.2117          0.6804E+06
   4484      1     55     17      0.1848          0.6804E+06
   4485      1     55     18      0.1648          0.6804E+06
   4486      1     55     19      0.1541          0.6804E+06
   4487      1     55     20      0.1429          0.6804E+06
   4488      1     55     21      0.1329          0.6804E+06
   4489      1     55     22      0.1240          0.6804E+06
   4490      1     55     23      0.1118          0.6804E+06
   4491      1     55     24      0.9718E-01      0.6804E+06
   4492      1     55     25      0.7122E-01      0.6804E+06
   4493      1     55     26      0.3151E-01      0.6804E+06
   4494      1     55     27     -0.1204E-01      0.6804E+06
   4495      1     55     60       0.000          0.6804E+06
   4496      1     55     61       0.000          0.6804E+06
   4497      1     55     62       0.000          0.6804E+06
   4498      1     55     63       0.000          0.6804E+06
   4499      1     55     64       0.000          0.6804E+06
   4500      1     55     65       0.000          0.6804E+06
   4501      1     55     66       0.000          0.6804E+06
   4502      1     55     67       0.000          0.6804E+06
   4503      1     55     68       0.000          0.6804E+06
   4504      1     55     69       0.000          0.6804E+06
   4505      1     55     70       0.000          0.6804E+06
   4506      1     55     71       0.000          0.6804E+06
   4507      1     55     72       0.000          0.6804E+06
   4508      1     55     73       0.000          0.6804E+06
   4509      1     55     74       0.000          0.6804E+06
   4510      1     55     75       0.000          0.6804E+06
   4511      1     55     76       0.000          0.6804E+06
   4512      1     55     77       0.000          0.6804E+06
   4513      1     55     78       0.000          0.6804E+06
   4514      1     55     79       0.000          0.6804E+06
   4515      1     55     80      0.1475E-01      0.6804E+06
   4516      1     55     81      0.3321E-01      0.6804E+06
   4517      1     55     82      0.4759E-01      0.6804E+06
   4518      1     55     83      0.5775E-01      0.6804E+06
   4519      1     55     84      0.6920E-01      0.6804E+06
   4520      1     55     85      0.7678E-01      0.6804E+06
   4521      1     55     86      0.8222E-01      0.6804E+06
   4522      1     55     87      0.8665E-01      0.6804E+06
   4523      1     55     88      0.9097E-01      0.6804E+06
   4524      1     55     89      0.9613E-01      0.6804E+06
   4525      1     55     90      0.1012          0.6804E+06
   4526      1     55     91      0.1052          0.6804E+06
   4527      1     55     92      0.1084          0.6804E+06
   4528      1     55     93      0.1098          0.6804E+06
   4529      1     55     94      0.1102          0.6804E+06
   4530      1     55     95      0.1099          0.6804E+06
   4531      1     55     96      0.1094          0.6804E+06
   4532      1     55     97      0.1092          0.6804E+06
   4533      1     55     98      0.1098          0.6804E+06
   4534      1     55     99      0.1116          0.6804E+06
   4535      1     55    100      0.1131          0.6804E+06
   4536      1     56      1      0.6312          0.6804E+06
   4537      1     56      2      0.5409          0.6804E+06
   4538      1     56      3      0.4642          0.6804E+06
   4539      1     56      4      0.3887          0.6804E+06
   4540      1     56      5      0.3345          0.6804E+06
   4541      1     56      6      0.3061          0.6804E+06
   4542      1     56      7      0.2913          0.6804E+06
   4543      1     56      8      0.2862          0.6804E+06
   4544      1     56      9      0.2857          0.6804E+06
   4545      1     56     10      0.2869          0.6804E+06
   4546      1     56     11      0.2876          0.6804E+06
   4547      1     56     12      0.2847          0.6804E+06
   4548      1     56     13      0.2729          0.6804E+06
   4549      1     56     14      0.2561          0.6804E+06
   4550      1     56     15      0.2319          0.6804E+06
   4551      1     56     16      0.2096          0.6804E+06
   4552      1     56     17      0.1859          0.6804E+06
   4553      1     56     18      0.1684          0.6804E+06
   4554      1     56     19      0.1589          0.6804E+06
   4555      1     56     20      0.1490          0.6804E+06
   4556      1     56     21      0.1399          0.6804E+06
   4557      1     56     22      0.1312          0.6804E+06
   4558      1     56     23      0.1194          0.6804E+06
   4559      1     56     24      0.1062          0.6804E+06
   4560      1     56     25      0.8524E-01      0.6804E+06
   4561      1     56     26      0.5596E-01      0.6804E+06
   4562      1     56     27      0.1974E-01      0.6804E+06
   4563      1     56     60       0.000          0.6804E+06
   4564      1     56     61       0.000          0.6804E+06
   4565      1     56     62       0.000          0.6804E+06
   4566      1     56     63       0.000          0.6804E+06
   4567      1     56     64       0.000          0.6804E+06
   4568      1     56     65       0.000          0.6804E+06
   4569      1     56     66       0.000          0.6804E+06
   4570      1     56     67       0.000          0.6804E+06
   4571      1     56     68       0.000          0.6804E+06
   4572      1     56     69       0.000          0.6804E+06
   4573      1     56     70       0.000          0.6804E+06
   4574      1     56     71       0.000          0.6804E+06
   4575      1     56     72       0.000          0.6804E+06
   4576      1     56     73       0.000          0.6804E+06
   4577      1     56     74       0.000          0.6804E+06
   4578      1     56     75       0.000          0.6804E+06
   4579      1     56     76       0.000          0.6804E+06
   4580      1     56     77       0.000          0.6804E+06
   4581      1     56     78       0.000          0.6804E+06
   4582      1     56     79       0.000          0.6804E+06
   4583      1     56     80      0.2085E-02      0.6804E+06
   4584      1     56     81      0.2358E-01      0.6804E+06
   4585      1     56     82      0.4190E-01      0.6804E+06
   4586      1     56     83      0.5476E-01      0.6804E+06
   4587      1     56     84      0.6855E-01      0.6804E+06
   4588      1     56     85      0.7777E-01      0.6804E+06
   4589      1     56     86      0.8464E-01      0.6804E+06
   4590      1     56     87      0.9097E-01      0.6804E+06
   4591      1     56     88      0.9667E-01      0.6804E+06
   4592      1     56     89      0.1034          0.6804E+06
   4593      1     56     90      0.1098          0.6804E+06
   4594      1     56     91      0.1150          0.6804E+06
   4595      1     56     92      0.1195          0.6804E+06
   4596      1     56     93      0.1222          0.6804E+06
   4597      1     56     94      0.1241          0.6804E+06
   4598      1     56     95      0.1254          0.6804E+06
   4599      1     56     96      0.1262          0.6804E+06
   4600      1     56     97      0.1269          0.6804E+06
   4601      1     56     98      0.1277          0.6804E+06
   4602      1     56     99      0.1290          0.6804E+06
   4603      1     56    100      0.1295          0.6804E+06
   4604      1     57      1      0.6304          0.6804E+06
   4605      1     57      2      0.5364          0.6804E+06
   4606      1     57      3      0.4541          0.6804E+06
   4607      1     57      4      0.3704          0.6804E+06
   4608      1     57      5      0.3153          0.6804E+06
   4609      1     57      6      0.2940          0.6804E+06
   4610      1     57      7      0.2853          0.6804E+06
   4611      1     57      8      0.2832          0.6804E+06
   4612      1     57      9      0.2837          0.6804E+06
   4613      1     57     10      0.2851          0.6804E+06
   4614      1     57     11      0.2857          0.6804E+06
   4615      1     57     12      0.2836          0.6804E+06
   4616      1     57     13      0.2715          0.6804E+06
   4617      1     57     14      0.2540          0.6804E+06
   4618      1     57     15      0.2299          0.6804E+06
   4619      1     57     16      0.2093          0.6804E+06
   4620      1     57     17      0.1891          0.6804E+06
   4621      1     57     18      0.1748          0.6804E+06
   4622      1     57     19      0.1672          0.6804E+06
   4623      1     57     20      0.1603          0.6804E+06
   4624      1     57     21      0.1507          0.6804E+06
   4625      1     57     22      0.1400          0.6804E+06
   4626      1     57     23      0.1263          0.6804E+06
   4627      1     57     24      0.1140          0.6804E+06
   4628      1     57     25      0.9739E-01      0.6804E+06
   4629      1     57     26      0.7617E-01      0.6804E+06
   4630      1     57     27      0.5181E-01      0.6804E+06
   4631      1     57     28      0.1336E-01      0.6804E+06
   4632      1     57     60       0.000          0.6804E+06
   4633      1     57     61       0.000          0.6804E+06
   4634      1     57     62       0.000          0.6804E+06
   4635      1     57     63       0.000          0.6804E+06
   4636      1     57     64       0.000          0.6804E+06
   4637      1     57     65       0.000          0.6804E+06
   4638      1     57     66       0.000          0.6804E+06
   4639      1     57     67       0.000          0.6804E+06
   4640      1     57     68       0.000          0.6804E+06
   4641      1     57     69       0.000          0.6804E+06
   4642      1     57     70       0.000          0.6804E+06
   4643      1     57     71       0.000          0.6804E+06
   4644      1     57     72       0.000          0.6804E+06
   4645      1     57     73       0.000          0.6804E+06
   4646      1     57     74       0.000          0.6804E+06
   4647      1     57     75       0.000          0.6804E+06
   4648      1     57     76       0.000          0.6804E+06
   4649      1     57     77       0.000          0.6804E+06
   4650      1     57     78       0.000          0.6804E+06
   4651      1     57     79       0.000          0.6804E+06
   4652      1     57     80       0.000          0.6804E+06
   4653      1     57     81      0.2049E-01      0.6804E+06
   4654      1     57     82      0.4031E-01      0.6804E+06
   4655      1     57     83      0.5477E-01      0.6804E+06
   4656      1     57     84      0.7030E-01      0.6804E+06
   4657      1     57     85      0.8112E-01      0.6804E+06
   4658      1     57     86      0.8956E-01      0.6804E+06
   4659      1     57     87      0.9740E-01      0.6804E+06
   4660      1     57     88      0.1041          0.6804E+06
   4661      1     57     89      0.1119          0.6804E+06
   4662      1     57     90      0.1193          0.6804E+06
   4663      1     57     91      0.1253          0.6804E+06
   4664      1     57     92      0.1307          0.6804E+06
   4665      1     57     93      0.1343          0.6804E+06
   4666      1     57     94      0.1375          0.6804E+06
   4667      1     57     95      0.1399          0.6804E+06
   4668      1     57     96      0.1416          0.6804E+06
   4669      1     57     97      0.1430          0.6804E+06
   4670      1     57     98      0.1441          0.6804E+06
   4671      1     57     99      0.1452          0.6804E+06
   4672      1     57    100      0.1453          0.6804E+06
   4673      1     58      1      0.6357          0.6804E+06
   4674      1     58      2      0.5398          0.6804E+06
   4675      1     58      3      0.4534          0.6804E+06
   4676      1     58      4      0.3633          0.6804E+06
   4677      1     58      5      0.3074          0.6804E+06
   4678      1     58      6      0.2914          0.6804E+06
   4679      1     58      7      0.2860          0.6804E+06
   4680      1     58      8      0.2850          0.6804E+06
   4681      1     58      9      0.2852          0.6804E+06
   4682      1     58     10      0.2853          0.6804E+06
   4683      1     58     11      0.2844          0.6804E+06
   4684      1     58     12      0.2801          0.6804E+06
   4685      1     58     13      0.2674          0.6804E+06
   4686      1     58     14      0.2503          0.6804E+06
   4687      1     58     15      0.2270          0.6804E+06
   4688      1     58     16      0.2072          0.6804E+06
   4689      1     58     17      0.1894          0.6804E+06
   4690      1     58     18      0.1784          0.6804E+06
   4691      1     58     19      0.1751          0.6804E+06
   4692      1     58     20      0.1748          0.6804E+06
   4693      1     58     21      0.1637          0.6804E+06
   4694      1     58     22      0.1485          0.6804E+06
   4695      1     58     23      0.1314          0.6804E+06
   4696      1     58     24      0.1192          0.6804E+06
   4697      1     58     25      0.1056          0.6804E+06
   4698      1     58     26      0.8914E-01      0.6804E+06
   4699      1     58     27      0.6916E-01      0.6804E+06
   4700      1     58     28      0.3482E-01      0.6804E+06
   4701      1     58     60       0.000          0.6804E+06
   4702      1     58     61       0.000          0.6804E+06
   4703      1     58     62       0.000          0.6804E+06
   4704      1     58     63       0.000          0.6804E+06
   4705      1     58     64       0.000          0.6804E+06
   4706      1     58     65       0.000          0.6804E+06
   4707      1     58     66       0.000          0.6804E+06
   4708      1     58     67       0.000          0.6804E+06
   4709      1     58     68       0.000          0.6804E+06
   4710      1     58     69       0.000          0.6804E+06
   4711      1     58     70       0.000          0.6804E+06
   4712      1     58     71       0.000          0.6804E+06
   4713      1     58     72       0.000          0.6804E+06
   4714      1     58     73       0.000          0.6804E+06
   4715      1     58     74       0.000          0.6804E+06
   4716      1     58     75       0.000          0.6804E+06
   4717      1     58     76       0.000          0.6804E+06
   4718      1     58     77       0.000          0.6804E+06
   4719      1     58     78       0.000          0.6804E+06
   4720      1     58     79       0.000          0.6804E+06
   4721      1     58     80       0.000          0.6804E+06
   4722      1     58     81      0.2124E-01      0.6804E+06
   4723      1     58     82      0.4235E-01      0.6804E+06
   4724      1     58     83      0.5872E-01      0.6804E+06
   4725      1     58     84      0.7556E-01      0.6804E+06
   4726      1     58     85      0.8743E-01      0.6804E+06
   4727      1     58     86      0.9713E-01      0.6804E+06
   4728      1     58     87      0.1062          0.6804E+06
   4729      1     58     88      0.1138          0.6804E+06
   4730      1     58     89      0.1227          0.6804E+06
   4731      1     58     90      0.1315          0.6804E+06
   4732      1     58     91      0.1380          0.6804E+06
   4733      1     58     92      0.1443          0.6804E+06
   4734      1     58     93      0.1488          0.6804E+06
   4735      1     58     94      0.1527          0.6804E+06
   4736      1     58     95      0.1560          0.6804E+06
   4737      1     58     96      0.1583          0.6804E+06
   4738      1     58     97      0.1603          0.6804E+06
   4739      1     58     98      0.1617          0.6804E+06
   4740      1     58     99      0.1629          0.6804E+06
   4741      1     58    100      0.1629          0.6804E+06
   4742      1     59      1      0.6494          0.6804E+06
   4743      1     59      2      0.5567          0.6804E+06
   4744      1     59      3      0.4732          0.6804E+06
   4745      1     59      4      0.3870          0.6804E+06
   4746      1     59      5      0.3298          0.6804E+06
   4747      1     59      6      0.3085          0.6804E+06
   4748      1     59      7      0.2980          0.6804E+06
   4749      1     59      8      0.2934          0.6804E+06
   4750      1     59      9      0.2909          0.6804E+06
   4751      1     59     10      0.2882          0.6804E+06
   4752      1     59     11      0.2849          0.6804E+06
   4753      1     59     12      0.2776          0.6804E+06
   4754      1     59     13      0.2639          0.6804E+06
   4755      1     59     14      0.2469          0.6804E+06
   4756      1     59     15      0.2236          0.6804E+06
   4757      1     59     16      0.2030          0.6804E+06
   4758      1     59     17      0.1850          0.6804E+06
   4759      1     59     18      0.1755          0.6804E+06
   4760      1     59     19      0.1749          0.6804E+06
   4761      1     59     20      0.1754          0.6804E+06
   4762      1     59     21      0.1638          0.6804E+06
   4763      1     59     22      0.1476          0.6804E+06
   4764      1     59     23      0.1293          0.6804E+06
   4765      1     59     24      0.1181          0.6804E+06
   4766      1     59     25      0.1070          0.6804E+06
   4767      1     59     26      0.9443E-01      0.6804E+06
   4768      1     59     27      0.7971E-01      0.6804E+06
   4769      1     59     28      0.5402E-01      0.6804E+06
   4770      1     59     61       0.000          0.6804E+06
   4771      1     59     62       0.000          0.6804E+06
   4772      1     59     63       0.000          0.6804E+06
   4773      1     59     64       0.000          0.6804E+06
   4774      1     59     65       0.000          0.6804E+06
   4775      1     59     66       0.000          0.6804E+06
   4776      1     59     67       0.000          0.6804E+06
   4777      1     59     68       0.000          0.6804E+06
   4778      1     59     69       0.000          0.6804E+06
   4779      1     59     70       0.000          0.6804E+06
   4780      1     59     71       0.000          0.6804E+06
   4781      1     59     72       0.000          0.6804E+06
   4782      1     59     73       0.000          0.6804E+06
   4783      1     59     74       0.000          0.6804E+06
   4784      1     59     75       0.000          0.6804E+06
   4785      1     59     76       0.000          0.6804E+06
   4786      1     59     77       0.000          0.6804E+06
   4787      1     59     78       0.000          0.6804E+06
   4788      1     59     79       0.000          0.6804E+06
   4789      1     59     80      0.1650E-02      0.6804E+06
   4790      1     59     81      0.2706E-01      0.6804E+06
   4791      1     59     82      0.4928E-01      0.6804E+06
   4792      1     59     83      0.6667E-01      0.6804E+06
   4793      1     59     84      0.8386E-01      0.6804E+06
   4794      1     59     85      0.9644E-01      0.6804E+06
   4795      1     59     86      0.1079          0.6804E+06
   4796      1     59     87      0.1176          0.6804E+06
   4797      1     59     88      0.1263          0.6804E+06
   4798      1     59     89      0.1368          0.6804E+06
   4799      1     59     90      0.1469          0.6804E+06
   4800      1     59     91      0.1541          0.6804E+06
   4801      1     59     92      0.1614          0.6804E+06
   4802      1     59     93      0.1668          0.6804E+06
   4803      1     59     94      0.1716          0.6804E+06
   4804      1     59     95      0.1757          0.6804E+06
   4805      1     59     96      0.1789          0.6804E+06
   4806      1     59     97      0.1816          0.6804E+06
   4807      1     59     98      0.1835          0.6804E+06
   4808      1     59     99      0.1850          0.6804E+06
   4809      1     59    100      0.1851          0.6804E+06
   4810      1     60      1      0.6688          0.6804E+06
   4811      1     60      2      0.5820          0.6804E+06
   4812      1     60      3      0.5054          0.6804E+06
   4813      1     60      4      0.4270          0.6804E+06
   4814      1     60      5      0.3690          0.6804E+06
   4815      1     60      6      0.3378          0.6804E+06
   4816      1     60      7      0.3171          0.6804E+06
   4817      1     60      8      0.3057          0.6804E+06
   4818      1     60      9      0.2989          0.6804E+06
   4819      1     60     10      0.2927          0.6804E+06
   4820      1     60     11      0.2873          0.6804E+06
   4821      1     60     12      0.2784          0.6804E+06
   4822      1     60     13      0.2638          0.6804E+06
   4823      1     60     14      0.2457          0.6804E+06
   4824      1     60     15      0.2212          0.6804E+06
   4825      1     60     16      0.1994          0.6804E+06
   4826      1     60     17      0.1803          0.6804E+06
   4827      1     60     18      0.1710          0.6804E+06
   4828      1     60     19      0.1713          0.6804E+06
   4829      1     60     20      0.1696          0.6804E+06
   4830      1     60     21      0.1578          0.6804E+06
   4831      1     60     22      0.1417          0.6804E+06
   4832      1     60     23      0.1228          0.6804E+06
   4833      1     60     24      0.1137          0.6804E+06
   4834      1     60     25      0.1050          0.6804E+06
   4835      1     60     26      0.9487E-01      0.6804E+06
   4836      1     60     27      0.8268E-01      0.6804E+06
   4837      1     60     28      0.6146E-01      0.6804E+06
   4838      1     60     61       0.000          0.6804E+06
   4839      1     60     62       0.000          0.6804E+06
   4840      1     60     63       0.000          0.6804E+06
   4841      1     60     64       0.000          0.6804E+06
   4842      1     60     65       0.000          0.6804E+06
   4843      1     60     66       0.000          0.6804E+06
   4844      1     60     67       0.000          0.6804E+06
   4845      1     60     68       0.000          0.6804E+06
   4846      1     60     69       0.000          0.6804E+06
   4847      1     60     70       0.000          0.6804E+06
   4848      1     60     71       0.000          0.6804E+06
   4849      1     60     72       0.000          0.6804E+06
   4850      1     60     73       0.000          0.6804E+06
   4851      1     60     74       0.000          0.6804E+06
   4852      1     60     75       0.000          0.6804E+06
   4853      1     60     76       0.000          0.6804E+06
   4854      1     60     77       0.000          0.6804E+06
   4855      1     60     78       0.000          0.6804E+06
   4856      1     60     79       0.000          0.6804E+06
   4857      1     60     80      0.1271E-01      0.6804E+06
   4858      1     60     81      0.3838E-01      0.6804E+06
   4859      1     60     82      0.6108E-01      0.6804E+06
   4860      1     60     83      0.7876E-01      0.6804E+06
   4861      1     60     84      0.9578E-01      0.6804E+06
   4862      1     60     85      0.1085          0.6804E+06
   4863      1     60     86      0.1211          0.6804E+06
   4864      1     60     87      0.1311          0.6804E+06
   4865      1     60     88      0.1402          0.6804E+06
   4866      1     60     89      0.1514          0.6804E+06
   4867      1     60     90      0.1617          0.6804E+06
   4868      1     60     91      0.1691          0.6804E+06
   4869      1     60     92      0.1767          0.6804E+06
   4870      1     60     93      0.1824          0.6804E+06
   4871      1     60     94      0.1876          0.6804E+06
   4872      1     60     95      0.1923          0.6804E+06
   4873      1     60     96      0.1959          0.6804E+06
   4874      1     60     97      0.1991          0.6804E+06
   4875      1     60     98      0.2014          0.6804E+06
   4876      1     60     99      0.2032          0.6804E+06
   4877      1     60    100      0.2035          0.6804E+06
   4878      1     61      1      0.6976          0.6804E+06
   4879      1     61      2      0.6178          0.6804E+06
   4880      1     61      3      0.5477          0.6804E+06
   4881      1     61      4      0.4742          0.6804E+06
   4882      1     61      5      0.4134          0.6804E+06
   4883      1     61      6      0.3726          0.6804E+06
   4884      1     61      7      0.3405          0.6804E+06
   4885      1     61      8      0.3211          0.6804E+06
   4886      1     61      9      0.3091          0.6804E+06
   4887      1     61     10      0.2979          0.6804E+06
   4888      1     61     11      0.2905          0.6804E+06
   4889      1     61     12      0.2818          0.6804E+06
   4890      1     61     13      0.2666          0.6804E+06
   4891      1     61     14      0.2464          0.6804E+06
   4892      1     61     15      0.2205          0.6804E+06
   4893      1     61     16      0.1984          0.6804E+06
   4894      1     61     17      0.1790          0.6804E+06
   4895      1     61     18      0.1690          0.6804E+06
   4896      1     61     19      0.1679          0.6804E+06
   4897      1     61     20      0.1635          0.6804E+06
   4898      1     61     21      0.1507          0.6804E+06
   4899      1     61     22      0.1343          0.6804E+06
   4900      1     61     23      0.1152          0.6804E+06
   4901      1     61     24      0.1078          0.6804E+06
   4902      1     61     25      0.1013          0.6804E+06
   4903      1     61     26      0.9303E-01      0.6804E+06
   4904      1     61     27      0.8277E-01      0.6804E+06
   4905      1     61     28      0.6609E-01      0.6804E+06
   4906      1     61     61       0.000          0.6804E+06
   4907      1     61     62       0.000          0.6804E+06
   4908      1     61     63       0.000          0.6804E+06
   4909      1     61     64       0.000          0.6804E+06
   4910      1     61     65       0.000          0.6804E+06
   4911      1     61     66       0.000          0.6804E+06
   4912      1     61     67       0.000          0.6804E+06
   4913      1     61     68       0.000          0.6804E+06
   4914      1     61     69       0.000          0.6804E+06
   4915      1     61     70       0.000          0.6804E+06
   4916      1     61     71       0.000          0.6804E+06
   4917      1     61     72       0.000          0.6804E+06
   4918      1     61     73       0.000          0.6804E+06
   4919      1     61     74       0.000          0.6804E+06
   4920      1     61     75       0.000          0.6804E+06
   4921      1     61     76       0.000          0.6804E+06
   4922      1     61     77       0.000          0.6804E+06
   4923      1     61     78       0.000          0.6804E+06
   4924      1     61     79      0.3636E-02      0.6804E+06
   4925      1     61     80      0.3003E-01      0.6804E+06
   4926      1     61     81      0.5554E-01      0.6804E+06
   4927      1     61     82      0.7794E-01      0.6804E+06
   4928      1     61     83      0.9543E-01      0.6804E+06
   4929      1     61     84      0.1124          0.6804E+06
   4930      1     61     85      0.1255          0.6804E+06
   4931      1     61     86      0.1392          0.6804E+06
   4932      1     61     87      0.1499          0.6804E+06
   4933      1     61     88      0.1593          0.6804E+06
   4934      1     61     89      0.1704          0.6804E+06
   4935      1     61     90      0.1802          0.6804E+06
   4936      1     61     91      0.1875          0.6804E+06
   4937      1     61     92      0.1949          0.6804E+06
   4938      1     61     93      0.2007          0.6804E+06
   4939      1     61     94      0.2062          0.6804E+06
   4940      1     61     95      0.2114          0.6804E+06
   4941      1     61     96      0.2155          0.6804E+06
   4942      1     61     97      0.2193          0.6804E+06
   4943      1     61     98      0.2220          0.6804E+06
   4944      1     61     99      0.2241          0.6804E+06
   4945      1     61    100      0.2246          0.6804E+06
   4946      1     62      1      0.7240          0.6804E+06
   4947      1     62      2      0.6493          0.6804E+06
   4948      1     62      3      0.5830          0.6804E+06
   4949      1     62      4      0.5107          0.6804E+06
   4950      1     62      5      0.4463          0.6804E+06
   4951      1     62      6      0.3983          0.6804E+06
   4952      1     62      7      0.3567          0.6804E+06
   4953      1     62      8      0.3291          0.6804E+06
   4954      1     62      9      0.3119          0.6804E+06
   4955      1     62     10      0.2971          0.6804E+06
   4956      1     62     11      0.2883          0.6804E+06
   4957      1     62     12      0.2802          0.6804E+06
   4958      1     62     13      0.2656          0.6804E+06
   4959      1     62     14      0.2444          0.6804E+06
   4960      1     62     15      0.2195          0.6804E+06
   4961      1     62     16      0.2002          0.6804E+06
   4962      1     62     17      0.1834          0.6804E+06
   4963      1     62     18      0.1738          0.6804E+06
   4964      1     62     19      0.1698          0.6804E+06
   4965      1     62     20      0.1632          0.6804E+06
   4966      1     62     21      0.1495          0.6804E+06
   4967      1     62     22      0.1331          0.6804E+06
   4968      1     62     23      0.1147          0.6804E+06
   4969      1     62     24      0.1041          0.6804E+06
   4970      1     62     25      0.9581E-01      0.6804E+06
   4971      1     62     26      0.8906E-01      0.6804E+06
   4972      1     62     27      0.8189E-01      0.6804E+06
   4973      1     62     28      0.7195E-01      0.6804E+06
   4974      1     62     62       0.000          0.6804E+06
   4975      1     62     63       0.000          0.6804E+06
   4976      1     62     64       0.000          0.6804E+06
   4977      1     62     65       0.000          0.6804E+06
   4978      1     62     66       0.000          0.6804E+06
   4979      1     62     67       0.000          0.6804E+06
   4980      1     62     68       0.000          0.6804E+06
   4981      1     62     69       0.000          0.6804E+06
   4982      1     62     70       0.000          0.6804E+06
   4983      1     62     71       0.000          0.6804E+06
   4984      1     62     72       0.000          0.6804E+06
   4985      1     62     73       0.000          0.6804E+06
   4986      1     62     74       0.000          0.6804E+06
   4987      1     62     75       0.000          0.6804E+06
   4988      1     62     76       0.000          0.6804E+06
   4989      1     62     77       0.000          0.6804E+06
   4990      1     62     78       0.000          0.6804E+06
   4991      1     62     79      0.2687E-01      0.6804E+06
   4992      1     62     80      0.5086E-01      0.6804E+06
   4993      1     62     81      0.7451E-01      0.6804E+06
   4994      1     62     82      0.9576E-01      0.6804E+06
   4995      1     62     83      0.1131          0.6804E+06
   4996      1     62     84      0.1301          0.6804E+06
   4997      1     62     85      0.1434          0.6804E+06
   4998      1     62     86      0.1578          0.6804E+06
   4999      1     62     87      0.1699          0.6804E+06
   5000      1     62     88      0.1792          0.6804E+06
   5001      1     62     89      0.1893          0.6804E+06
   5002      1     62     90      0.1978          0.6804E+06
   5003      1     62     91      0.2042          0.6804E+06
   5004      1     62     92      0.2111          0.6804E+06
   5005      1     62     93      0.2166          0.6804E+06
   5006      1     62     94      0.2222          0.6804E+06
   5007      1     62     95      0.2277          0.6804E+06
   5008      1     62     96      0.2323          0.6804E+06
   5009      1     62     97      0.2367          0.6804E+06
   5010      1     62     98      0.2399          0.6804E+06
   5011      1     62     99      0.2420          0.6804E+06
   5012      1     62    100      0.2425          0.6804E+06
   5013      1     63      1      0.7647          0.6804E+06
   5014      1     63      2      0.6953          0.6804E+06
   5015      1     63      3      0.6322          0.6804E+06
   5016      1     63      4      0.5590          0.6804E+06
   5017      1     63      5      0.4875          0.6804E+06
   5018      1     63      6      0.4283          0.6804E+06
   5019      1     63      7      0.3718          0.6804E+06
   5020      1     63      8      0.3312          0.6804E+06
   5021      1     63      9      0.3063          0.6804E+06
   5022      1     63     10      0.2882          0.6804E+06
   5023      1     63     11      0.2781          0.6804E+06
   5024      1     63     12      0.2691          0.6804E+06
   5025      1     63     13      0.2554          0.6804E+06
   5026      1     63     14      0.2363          0.6804E+06
   5027      1     63     15      0.2153          0.6804E+06
   5028      1     63     16      0.2003          0.6804E+06
   5029      1     63     17      0.1874          0.6804E+06
   5030      1     63     18      0.1789          0.6804E+06
   5031      1     63     19      0.1732          0.6804E+06
   5032      1     63     20      0.1645          0.6804E+06
   5033      1     63     21      0.1499          0.6804E+06
   5034      1     63     22      0.1328          0.6804E+06
   5035      1     63     23      0.1128          0.6804E+06
   5036      1     63     24      0.9874E-01      0.6804E+06
   5037      1     63     25      0.8765E-01      0.6804E+06
   5038      1     63     26      0.8152E-01      0.6804E+06
   5039      1     63     27      0.7855E-01      0.6804E+06
   5040      1     63     28      0.7447E-01      0.6804E+06
   5041      1     63     29      0.6772E-01      0.6804E+06
   5042      1     63     62       0.000          0.6804E+06
   5043      1     63     63       0.000          0.6804E+06
   5044      1     63     64       0.000          0.6804E+06
   5045      1     63     65       0.000          0.6804E+06
   5046      1     63     66       0.000          0.6804E+06
   5047      1     63     67       0.000          0.6804E+06
   5048      1     63     68       0.000          0.6804E+06
   5049      1     63     69       0.000          0.6804E+06
   5050      1     63     70       0.000          0.6804E+06
   5051      1     63     71       0.000          0.6804E+06
   5052      1     63     72       0.000          0.6804E+06
   5053      1     63     73       0.000          0.6804E+06
   5054      1     63     74       0.000          0.6804E+06
   5055      1     63     75       0.000          0.6804E+06
   5056      1     63     76       0.000          0.6804E+06
   5057      1     63     77       0.000          0.6804E+06
   5058      1     63     78      0.3195E-01      0.6804E+06
   5059      1     63     79      0.5937E-01      0.6804E+06
   5060      1     63     80      0.7975E-01      0.6804E+06
   5061      1     63     81      0.1004          0.6804E+06
   5062      1     63     82      0.1196          0.6804E+06
   5063      1     63     83      0.1355          0.6804E+06
   5064      1     63     84      0.1520          0.6804E+06
   5065      1     63     85      0.1655          0.6804E+06
   5066      1     63     86      0.1807          0.6804E+06
   5067      1     63     87      0.1938          0.6804E+06
   5068      1     63     88      0.2029          0.6804E+06
   5069      1     63     89      0.2111          0.6804E+06
   5070      1     63     90      0.2174          0.6804E+06
   5071      1     63     91      0.2226          0.6804E+06
   5072      1     63     92      0.2287          0.6804E+06
   5073      1     63     93      0.2339          0.6804E+06
   5074      1     63     94      0.2395          0.6804E+06
   5075      1     63     95      0.2455          0.6804E+06
   5076      1     63     96      0.2505          0.6804E+06
   5077      1     63     97      0.2555          0.6804E+06
   5078      1     63     98      0.2592          0.6804E+06
   5079      1     63     99      0.2613          0.6804E+06
   5080      1     63    100      0.2618          0.6804E+06
   5081      1     64      1      0.8053          0.6804E+06
   5082      1     64      2      0.7400          0.6804E+06
   5083      1     64      3      0.6788          0.6804E+06
   5084      1     64      4      0.6036          0.6804E+06
   5085      1     64      5      0.5239          0.6804E+06
   5086      1     64      6      0.4526          0.6804E+06
   5087      1     64      7      0.3795          0.6804E+06
   5088      1     64      8      0.3251          0.6804E+06
   5089      1     64      9      0.2936          0.6804E+06
   5090      1     64     10      0.2744          0.6804E+06
   5091      1     64     11      0.2630          0.6804E+06
   5092      1     64     12      0.2510          0.6804E+06
   5093      1     64     13      0.2376          0.6804E+06
   5094      1     64     14      0.2234          0.6804E+06
   5095      1     64     15      0.2076          0.6804E+06
   5096      1     64     16      0.1967          0.6804E+06
   5097      1     64     17      0.1875          0.6804E+06
   5098      1     64     18      0.1814          0.6804E+06
   5099      1     64     19      0.1768          0.6804E+06
   5100      1     64     20      0.1680          0.6804E+06
   5101      1     64     21      0.1524          0.6804E+06
   5102      1     64     22      0.1333          0.6804E+06
   5103      1     64     23      0.1095          0.6804E+06
   5104      1     64     24      0.9132E-01      0.6804E+06
   5105      1     64     25      0.7684E-01      0.6804E+06
   5106      1     64     26      0.7106E-01      0.6804E+06
   5107      1     64     27      0.7188E-01      0.6804E+06
   5108      1     64     28      0.7394E-01      0.6804E+06
   5109      1     64     29      0.7391E-01      0.6804E+06
   5110      1     64     30      0.6714E-01      0.6804E+06
   5111      1     64     62       0.000          0.6804E+06
   5112      1     64     63       0.000          0.6804E+06
   5113      1     64     64       0.000          0.6804E+06
   5114      1     64     65       0.000          0.6804E+06
   5115      1     64     66       0.000          0.6804E+06
   5116      1     64     67       0.000          0.6804E+06
   5117      1     64     68       0.000          0.6804E+06
   5118      1     64     69       0.000          0.6804E+06
   5119      1     64     70       0.000          0.6804E+06
   5120      1     64     71       0.000          0.6804E+06
   5121      1     64     72       0.000          0.6804E+06
   5122      1     64     73       0.000          0.6804E+06
   5123      1     64     74       0.000          0.6804E+06
   5124      1     64     75       0.000          0.6804E+06
   5125      1     64     76      0.2230E-01      0.6804E+06
   5126      1     64     77      0.4549E-01      0.6804E+06
   5127      1     64     78      0.7268E-01      0.6804E+06
   5128      1     64     79      0.9491E-01      0.6804E+06
   5129      1     64     80      0.1114          0.6804E+06
   5130      1     64     81      0.1289          0.6804E+06
   5131      1     64     82      0.1457          0.6804E+06
   5132      1     64     83      0.1592          0.6804E+06
   5133      1     64     84      0.1739          0.6804E+06
   5134      1     64     85      0.1874          0.6804E+06
   5135      1     64     86      0.2027          0.6804E+06
   5136      1     64     87      0.2166          0.6804E+06
   5137      1     64     88      0.2251          0.6804E+06
   5138      1     64     89      0.2313          0.6804E+06
   5139      1     64     90      0.2360          0.6804E+06
   5140      1     64     91      0.2402          0.6804E+06
   5141      1     64     92      0.2454          0.6804E+06
   5142      1     64     93      0.2502          0.6804E+06
   5143      1     64     94      0.2557          0.6804E+06
   5144      1     64     95      0.2617          0.6804E+06
   5145      1     64     96      0.2668          0.6804E+06
   5146      1     64     97      0.2718          0.6804E+06
   5147      1     64     98      0.2755          0.6804E+06
   5148      1     64     99      0.2779          0.6804E+06
   5149      1     64    100      0.2789          0.6804E+06
   5150      1     65      1      0.8433          0.6804E+06
   5151      1     65      2      0.7804          0.6804E+06
   5152      1     65      3      0.7192          0.6804E+06
   5153      1     65      4      0.6415          0.6804E+06
   5154      1     65      5      0.5560          0.6804E+06
   5155      1     65      6      0.4755          0.6804E+06
   5156      1     65      7      0.3853          0.6804E+06
   5157      1     65      8      0.3184          0.6804E+06
   5158      1     65      9      0.2833          0.6804E+06
   5159      1     65     10      0.2655          0.6804E+06
   5160      1     65     11      0.2530          0.6804E+06
   5161      1     65     12      0.2388          0.6804E+06
   5162      1     65     13      0.2247          0.6804E+06
   5163      1     65     14      0.2122          0.6804E+06
   5164      1     65     15      0.1992          0.6804E+06
   5165      1     65     16      0.1906          0.6804E+06
   5166      1     65     17      0.1839          0.6804E+06
   5167      1     65     18      0.1807          0.6804E+06
   5168      1     65     19      0.1793          0.6804E+06
   5169      1     65     20      0.1725          0.6804E+06
   5170      1     65     21      0.1564          0.6804E+06
   5171      1     65     22      0.1344          0.6804E+06
   5172      1     65     23      0.1070          0.6804E+06
   5173      1     65     24      0.8469E-01      0.6804E+06
   5174      1     65     25      0.6673E-01      0.6804E+06
   5175      1     65     26      0.6113E-01      0.6804E+06
   5176      1     65     27      0.6565E-01      0.6804E+06
   5177      1     65     28      0.7254E-01      0.6804E+06
   5178      1     65     29      0.7758E-01      0.6804E+06
   5179      1     65     30      0.7604E-01      0.6804E+06
   5180      1     65     62       0.000          0.6804E+06
   5181      1     65     63       0.000          0.6804E+06
   5182      1     65     64       0.000          0.6804E+06
   5183      1     65     65       0.000          0.6804E+06
   5184      1     65     66       0.000          0.6804E+06
   5185      1     65     67       0.000          0.6804E+06
   5186      1     65     68       0.000          0.6804E+06
   5187      1     65     69       0.000          0.6804E+06
   5188      1     65     70       0.000          0.6804E+06
   5189      1     65     71       0.000          0.6804E+06
   5190      1     65     72       0.000          0.6804E+06
   5191      1     65     73       0.000          0.6804E+06
   5192      1     65     74       0.000          0.6804E+06
   5193      1     65     75      0.1949E-01      0.6804E+06
   5194      1     65     76      0.7660E-01      0.6804E+06
   5195      1     65     77      0.9054E-01      0.6804E+06
   5196      1     65     78      0.1097          0.6804E+06
   5197      1     65     79      0.1260          0.6804E+06
   5198      1     65     80      0.1387          0.6804E+06
   5199      1     65     81      0.1538          0.6804E+06
   5200      1     65     82      0.1687          0.6804E+06
   5201      1     65     83      0.1797          0.6804E+06
   5202      1     65     84      0.1924          0.6804E+06
   5203      1     65     85      0.2052          0.6804E+06
   5204      1     65     86      0.2200          0.6804E+06
   5205      1     65     87      0.2335          0.6804E+06
   5206      1     65     88      0.2415          0.6804E+06
   5207      1     65     89      0.2465          0.6804E+06
   5208      1     65     90      0.2506          0.6804E+06
   5209      1     65     91      0.2542          0.6804E+06
   5210      1     65     92      0.2589          0.6804E+06
   5211      1     65     93      0.2634          0.6804E+06
   5212      1     65     94      0.2688          0.6804E+06
   5213      1     65     95      0.2745          0.6804E+06
   5214      1     65     96      0.2797          0.6804E+06
   5215      1     65     97      0.2849          0.6804E+06
   5216      1     65     98      0.2884          0.6804E+06
   5217      1     65     99      0.2909          0.6804E+06
   5218      1     65    100      0.2919          0.6804E+06
   5219      1     66      1      0.8893          0.6804E+06
   5220      1     66      2      0.8288          0.6804E+06
   5221      1     66      3      0.7675          0.6804E+06
   5222      1     66      4      0.6887          0.6804E+06
   5223      1     66      5      0.6005          0.6804E+06
   5224      1     66      6      0.5151          0.6804E+06
   5225      1     66      7      0.4139          0.6804E+06
   5226      1     66      8      0.3369          0.6804E+06
   5227      1     66      9      0.2959          0.6804E+06
   5228      1     66     10      0.2720          0.6804E+06
   5229      1     66     11      0.2530          0.6804E+06
   5230      1     66     12      0.2326          0.6804E+06
   5231      1     66     13      0.2150          0.6804E+06
   5232      1     66     14      0.2025          0.6804E+06
   5233      1     66     15      0.1906          0.6804E+06
   5234      1     66     16      0.1828          0.6804E+06
   5235      1     66     17      0.1773          0.6804E+06
   5236      1     66     18      0.1770          0.6804E+06
   5237      1     66     19      0.1794          0.6804E+06
   5238      1     66     20      0.1761          0.6804E+06
   5239      1     66     21      0.1606          0.6804E+06
   5240      1     66     22      0.1362          0.6804E+06
   5241      1     66     23      0.1063          0.6804E+06
   5242      1     66     24      0.8042E-01      0.6804E+06
   5243      1     66     25      0.5877E-01      0.6804E+06
   5244      1     66     26      0.5290E-01      0.6804E+06
   5245      1     66     27      0.6109E-01      0.6804E+06
   5246      1     66     28      0.7134E-01      0.6804E+06
   5247      1     66     29      0.8049E-01      0.6804E+06
   5248      1     66     30      0.8453E-01      0.6804E+06
   5249      1     66     64       0.000          0.6804E+06
   5250      1     66     65       0.000          0.6804E+06
   5251      1     66     66       0.000          0.6804E+06
   5252      1     66     67       0.000          0.6804E+06
   5253      1     66     68       0.000          0.6804E+06
   5254      1     66     69       0.000          0.6804E+06
   5255      1     66     70       0.000          0.6804E+06
   5256      1     66     71       0.000          0.6804E+06
   5257      1     66     72       0.000          0.6804E+06
   5258      1     66     73       0.000          0.6804E+06
   5259      1     66     74      0.1345E-01      0.6804E+06
   5260      1     66     75      0.6491E-01      0.6804E+06
   5261      1     66     76      0.1138          0.6804E+06
   5262      1     66     77      0.1313          0.6804E+06
   5263      1     66     78      0.1469          0.6804E+06
   5264      1     66     79      0.1595          0.6804E+06
   5265      1     66     80      0.1696          0.6804E+06
   5266      1     66     81      0.1816          0.6804E+06
   5267      1     66     82      0.1930          0.6804E+06
   5268      1     66     83      0.2018          0.6804E+06
   5269      1     66     84      0.2123          0.6804E+06
   5270      1     66     85      0.2237          0.6804E+06
   5271      1     66     86      0.2367          0.6804E+06
   5272      1     66     87      0.2476          0.6804E+06
   5273      1     66     88      0.2547          0.6804E+06
   5274      1     66     89      0.2601          0.6804E+06
   5275      1     66     90      0.2645          0.6804E+06
   5276      1     66     91      0.2680          0.6804E+06
   5277      1     66     92      0.2724          0.6804E+06
   5278      1     66     93      0.2766          0.6804E+06
   5279      1     66     94      0.2818          0.6804E+06
   5280      1     66     95      0.2876          0.6804E+06
   5281      1     66     96      0.2929          0.6804E+06
   5282      1     66     97      0.2984          0.6804E+06
   5283      1     66     98      0.3019          0.6804E+06
   5284      1     66     99      0.3039          0.6804E+06
   5285      1     66    100      0.3045          0.6804E+06
   5286      1     67      1      0.9378          0.6804E+06
   5287      1     67      2      0.8798          0.6804E+06
   5288      1     67      3      0.8201          0.6804E+06
   5289      1     67      4      0.7431          0.6804E+06
   5290      1     67      5      0.6568          0.6804E+06
   5291      1     67      6      0.5729          0.6804E+06
   5292      1     67      7      0.4731          0.6804E+06
   5293      1     67      8      0.3918          0.6804E+06
   5294      1     67      9      0.3410          0.6804E+06
   5295      1     67     10      0.2998          0.6804E+06
   5296      1     67     11      0.2668          0.6804E+06
   5297      1     67     12      0.2348          0.6804E+06
   5298      1     67     13      0.2115          0.6804E+06
   5299      1     67     14      0.1983          0.6804E+06
   5300      1     67     15      0.1866          0.6804E+06
   5301      1     67     16      0.1779          0.6804E+06
   5302      1     67     17      0.1716          0.6804E+06
   5303      1     67     18      0.1729          0.6804E+06
   5304      1     67     19      0.1760          0.6804E+06
   5305      1     67     20      0.1729          0.6804E+06
   5306      1     67     21      0.1588          0.6804E+06
   5307      1     67     22      0.1373          0.6804E+06
   5308      1     67     23      0.1092          0.6804E+06
   5309      1     67     24      0.8535E-01      0.6804E+06
   5310      1     67     25      0.6494E-01      0.6804E+06
   5311      1     67     26      0.5779E-01      0.6804E+06
   5312      1     67     27      0.6287E-01      0.6804E+06
   5313      1     67     28      0.7176E-01      0.6804E+06
   5314      1     67     29      0.8205E-01      0.6804E+06
   5315      1     67     30      0.8959E-01      0.6804E+06
   5316      1     67     31      0.8928E-01      0.6804E+06
   5317      1     67     66       0.000          0.6804E+06
   5318      1     67     67       0.000          0.6804E+06
   5319      1     67     68       0.000          0.6804E+06
   5320      1     67     69       0.000          0.6804E+06
   5321      1     67     70       0.000          0.6804E+06
   5322      1     67     71       0.000          0.6804E+06
   5323      1     67     72       0.000          0.6804E+06
   5324      1     67     73      0.1480E-01      0.6804E+06
   5325      1     67     74      0.6347E-01      0.6804E+06
   5326      1     67     75      0.1037          0.6804E+06
   5327      1     67     76      0.1422          0.6804E+06
   5328      1     67     77      0.1633          0.6804E+06
   5329      1     67     78      0.1782          0.6804E+06
   5330      1     67     79      0.1892          0.6804E+06
   5331      1     67     80      0.1978          0.6804E+06
   5332      1     67     81      0.2072          0.6804E+06
   5333      1     67     82      0.2164          0.6804E+06
   5334      1     67     83      0.2231          0.6804E+06
   5335      1     67     84      0.2308          0.6804E+06
   5336      1     67     85      0.2400          0.6804E+06
   5337      1     67     86      0.2510          0.6804E+06
   5338      1     67     87      0.2601          0.6804E+06
   5339      1     67     88      0.2662          0.6804E+06
   5340      1     67     89      0.2714          0.6804E+06
   5341      1     67     90      0.2756          0.6804E+06
   5342      1     67     91      0.2790          0.6804E+06
   5343      1     67     92      0.2833          0.6804E+06
   5344      1     67     93      0.2874          0.6804E+06
   5345      1     67     94      0.2925          0.6804E+06
   5346      1     67     95      0.2982          0.6804E+06
   5347      1     67     96      0.3037          0.6804E+06
   5348      1     67     97      0.3095          0.6804E+06
   5349      1     67     98      0.3132          0.6804E+06
   5350      1     67     99      0.3144          0.6804E+06
   5351      1     67    100      0.3145          0.6804E+06
   5352      1     68      1      0.9804          0.6804E+06
   5353      1     68      2      0.9247          0.6804E+06
   5354      1     68      3      0.8686          0.6804E+06
   5355      1     68      4      0.7966          0.6804E+06
   5356      1     68      5      0.7156          0.6804E+06
   5357      1     68      6      0.6375          0.6804E+06
   5358      1     68      7      0.5474          0.6804E+06
   5359      1     68      8      0.4666          0.6804E+06
   5360      1     68      9      0.4044          0.6804E+06
   5361      1     68     10      0.3407          0.6804E+06
   5362      1     68     11      0.2907          0.6804E+06
   5363      1     68     12      0.2450          0.6804E+06
   5364      1     68     13      0.2151          0.6804E+06
   5365      1     68     14      0.2005          0.6804E+06
   5366      1     68     15      0.1885          0.6804E+06
   5367      1     68     16      0.1797          0.6804E+06
   5368      1     68     17      0.1732          0.6804E+06
   5369      1     68     18      0.1745          0.6804E+06
   5370      1     68     19      0.1764          0.6804E+06
   5371      1     68     20      0.1722          0.6804E+06
   5372      1     68     21      0.1587          0.6804E+06
   5373      1     68     22      0.1395          0.6804E+06
   5374      1     68     23      0.1139          0.6804E+06
   5375      1     68     24      0.9218E-01      0.6804E+06
   5376      1     68     25      0.7264E-01      0.6804E+06
   5377      1     68     26      0.6355E-01      0.6804E+06
   5378      1     68     27      0.6583E-01      0.6804E+06
   5379      1     68     28      0.7308E-01      0.6804E+06
   5380      1     68     29      0.8215E-01      0.6804E+06
   5381      1     68     30      0.8946E-01      0.6804E+06
   5382      1     68     68       0.000          0.6804E+06
   5383      1     68     69       0.000          0.6804E+06
   5384      1     68     70       0.000          0.6804E+06
   5385      1     68     71       0.000          0.6804E+06
   5386      1     68     72      0.2050E-01      0.6804E+06
   5387      1     68     73      0.5891E-01      0.6804E+06
   5388      1     68     74      0.1021          0.6804E+06
   5389      1     68     75      0.1364          0.6804E+06
   5390      1     68     76      0.1685          0.6804E+06
   5391      1     68     77      0.1877          0.6804E+06
   5392      1     68     78      0.2019          0.6804E+06
   5393      1     68     79      0.2123          0.6804E+06
   5394      1     68     80      0.2198          0.6804E+06
   5395      1     68     81      0.2275          0.6804E+06
   5396      1     68     82      0.2350          0.6804E+06
   5397      1     68     83      0.2402          0.6804E+06
   5398      1     68     84      0.2459          0.6804E+06
   5399      1     68     85      0.2531          0.6804E+06
   5400      1     68     86      0.2623          0.6804E+06
   5401      1     68     87      0.2701          0.6804E+06
   5402      1     68     88      0.2754          0.6804E+06
   5403      1     68     89      0.2797          0.6804E+06
   5404      1     68     90      0.2836          0.6804E+06
   5405      1     68     91      0.2869          0.6804E+06
   5406      1     68     92      0.2909          0.6804E+06
   5407      1     68     93      0.2948          0.6804E+06
   5408      1     68     94      0.2997          0.6804E+06
   5409      1     68     95      0.3052          0.6804E+06
   5410      1     68     96      0.3103          0.6804E+06
   5411      1     68     97      0.3156          0.6804E+06
   5412      1     68     98      0.3190          0.6804E+06
   5413      1     68     99      0.3204          0.6804E+06
   5414      1     68    100      0.3206          0.6804E+06
   5415      1     69      1       1.019          0.6804E+06
   5416      1     69      2      0.9688          0.6804E+06
   5417      1     69      3      0.9209          0.6804E+06
   5418      1     69      4      0.8591          0.6804E+06
   5419      1     69      5      0.7854          0.6804E+06
   5420      1     69      6      0.7143          0.6804E+06
   5421      1     69      7      0.6333          0.6804E+06
   5422      1     69      8      0.5542          0.6804E+06
   5423      1     69      9      0.4827          0.6804E+06
   5424      1     69     10      0.3975          0.6804E+06
   5425      1     69     11      0.3301          0.6804E+06
   5426      1     69     12      0.2690          0.6804E+06
   5427      1     69     13      0.2299          0.6804E+06
   5428      1     69     14      0.2118          0.6804E+06
   5429      1     69     15      0.1989          0.6804E+06
   5430      1     69     16      0.1910          0.6804E+06
   5431      1     69     17      0.1856          0.6804E+06
   5432      1     69     18      0.1847          0.6804E+06
   5433      1     69     19      0.1841          0.6804E+06
   5434      1     69     20      0.1779          0.6804E+06
   5435      1     69     21      0.1637          0.6804E+06
   5436      1     69     22      0.1446          0.6804E+06
   5437      1     69     23      0.1205          0.6804E+06
   5438      1     69     24      0.1003          0.6804E+06
   5439      1     69     25      0.8040E-01      0.6804E+06
   5440      1     69     26      0.6800E-01      0.6804E+06
   5441      1     69     27      0.6869E-01      0.6804E+06
   5442      1     69     28      0.7510E-01      0.6804E+06
   5443      1     69     29      0.8276E-01      0.6804E+06
   5444      1     69     30      0.8854E-01      0.6804E+06
   5445      1     69     70      0.2206E-01      0.6804E+06
   5446      1     69     71      0.4476E-01      0.6804E+06
   5447      1     69     72      0.7024E-01      0.6804E+06
   5448      1     69     73      0.1049          0.6804E+06
   5449      1     69     74      0.1407          0.6804E+06
   5450      1     69     75      0.1691          0.6804E+06
   5451      1     69     76      0.1961          0.6804E+06
   5452      1     69     77      0.2139          0.6804E+06
   5453      1     69     78      0.2266          0.6804E+06
   5454      1     69     79      0.2356          0.6804E+06
   5455      1     69     80      0.2419          0.6804E+06
   5456      1     69     81      0.2478          0.6804E+06
   5457      1     69     82      0.2529          0.6804E+06
   5458      1     69     83      0.2568          0.6804E+06
   5459      1     69     84      0.2613          0.6804E+06
   5460      1     69     85      0.2668          0.6804E+06
   5461      1     69     86      0.2738          0.6804E+06
   5462      1     69     87      0.2799          0.6804E+06
   5463      1     69     88      0.2842          0.6804E+06
   5464      1     69     89      0.2875          0.6804E+06
   5465      1     69     90      0.2910          0.6804E+06
   5466      1     69     91      0.2939          0.6804E+06
   5467      1     69     92      0.2977          0.6804E+06
   5468      1     69     93      0.3013          0.6804E+06
   5469      1     69     94      0.3057          0.6804E+06
   5470      1     69     95      0.3107          0.6804E+06
   5471      1     69     96      0.3151          0.6804E+06
   5472      1     69     97      0.3197          0.6804E+06
   5473      1     69     98      0.3226          0.6804E+06
   5474      1     69     99      0.3242          0.6804E+06
   5475      1     69    100      0.3248          0.6804E+06
   5476      1     70      1       1.039          0.6804E+06
   5477      1     70      2      0.9961          0.6804E+06
   5478      1     70      3      0.9560          0.6804E+06
   5479      1     70      4      0.9038          0.6804E+06
   5480      1     70      5      0.8388          0.6804E+06
   5481      1     70      6      0.7754          0.6804E+06
   5482      1     70      7      0.7007          0.6804E+06
   5483      1     70      8      0.6222          0.6804E+06
   5484      1     70      9      0.5448          0.6804E+06
   5485      1     70     10      0.4475          0.6804E+06
   5486      1     70     11      0.3687          0.6804E+06
   5487      1     70     12      0.2960          0.6804E+06
   5488      1     70     13      0.2494          0.6804E+06
   5489      1     70     14      0.2283          0.6804E+06
   5490      1     70     15      0.2144          0.6804E+06
   5491      1     70     16      0.2064          0.6804E+06
   5492      1     70     17      0.2007          0.6804E+06
   5493      1     70     18      0.1982          0.6804E+06
   5494      1     70     19      0.1961          0.6804E+06
   5495      1     70     20      0.1884          0.6804E+06
   5496      1     70     21      0.1725          0.6804E+06
   5497      1     70     22      0.1517          0.6804E+06
   5498      1     70     23      0.1269          0.6804E+06
   5499      1     70     24      0.1067          0.6804E+06
   5500      1     70     25      0.8626E-01      0.6804E+06
   5501      1     70     26      0.7133E-01      0.6804E+06
   5502      1     70     27      0.7160E-01      0.6804E+06
   5503      1     70     28      0.7754E-01      0.6804E+06
   5504      1     70     29      0.8380E-01      0.6804E+06
   5505      1     70     30      0.8768E-01      0.6804E+06
   5506      1     70     72      0.1065          0.6804E+06
   5507      1     70     73      0.1390          0.6804E+06
   5508      1     70     74      0.1710          0.6804E+06
   5509      1     70     75      0.1963          0.6804E+06
   5510      1     70     76      0.2208          0.6804E+06
   5511      1     70     77      0.2365          0.6804E+06
   5512      1     70     78      0.2472          0.6804E+06
   5513      1     70     79      0.2544          0.6804E+06
   5514      1     70     80      0.2592          0.6804E+06
   5515      1     70     81      0.2632          0.6804E+06
   5516      1     70     82      0.2654          0.6804E+06
   5517      1     70     83      0.2680          0.6804E+06
   5518      1     70     84      0.2721          0.6804E+06
   5519      1     70     85      0.2763          0.6804E+06
   5520      1     70     86      0.2816          0.6804E+06
   5521      1     70     87      0.2863          0.6804E+06
   5522      1     70     88      0.2897          0.6804E+06
   5523      1     70     89      0.2926          0.6804E+06
   5524      1     70     90      0.2956          0.6804E+06
   5525      1     70     91      0.2985          0.6804E+06
   5526      1     70     92      0.3021          0.6804E+06
   5527      1     70     93      0.3053          0.6804E+06
   5528      1     70     94      0.3094          0.6804E+06
   5529      1     70     95      0.3138          0.6804E+06
   5530      1     70     96      0.3177          0.6804E+06
   5531      1     70     97      0.3216          0.6804E+06
   5532      1     70     98      0.3241          0.6804E+06
   5533      1     70     99      0.3260          0.6804E+06
   5534      1     70    100      0.3269          0.6804E+06
   5535      1     71      1       1.044          0.6804E+06
   5536      1     71      2       1.012          0.6804E+06
   5537      1     71      3      0.9810          0.6804E+06
   5538      1     71      4      0.9393          0.6804E+06
   5539      1     71      5      0.8874          0.6804E+06
   5540      1     71      6      0.8357          0.6804E+06
   5541      1     71      7      0.7698          0.6804E+06
   5542      1     71      8      0.6933          0.6804E+06
   5543      1     71      9      0.6115          0.6804E+06
   5544      1     71     10      0.5047          0.6804E+06
   5545      1     71     11      0.4131          0.6804E+06
   5546      1     71     12      0.3265          0.6804E+06
   5547      1     71     13      0.2751          0.6804E+06
   5548      1     71     14      0.2534          0.6804E+06
   5549      1     71     15      0.2384          0.6804E+06
   5550      1     71     16      0.2288          0.6804E+06
   5551      1     71     17      0.2208          0.6804E+06
   5552      1     71     18      0.2147          0.6804E+06
   5553      1     71     19      0.2103          0.6804E+06
   5554      1     71     20      0.2004          0.6804E+06
   5555      1     71     21      0.1819          0.6804E+06
   5556      1     71     22      0.1587          0.6804E+06
   5557      1     71     23      0.1336          0.6804E+06
   5558      1     71     24      0.1141          0.6804E+06
   5559      1     71     25      0.9519E-01      0.6804E+06
   5560      1     71     26      0.8224E-01      0.6804E+06
   5561      1     71     27      0.7984E-01      0.6804E+06
   5562      1     71     28      0.8187E-01      0.6804E+06
   5563      1     71     29      0.8450E-01      0.6804E+06
   5564      1     71     30      0.8545E-01      0.6804E+06
   5565      1     71     74      0.2032          0.6804E+06
   5566      1     71     75      0.2267          0.6804E+06
   5567      1     71     76      0.2487          0.6804E+06
   5568      1     71     77      0.2610          0.6804E+06
   5569      1     71     78      0.2689          0.6804E+06
   5570      1     71     79      0.2737          0.6804E+06
   5571      1     71     80      0.2767          0.6804E+06
   5572      1     71     81      0.2788          0.6804E+06
   5573      1     71     82      0.2788          0.6804E+06
   5574      1     71     83      0.2797          0.6804E+06
   5575      1     71     84      0.2822          0.6804E+06
   5576      1     71     85      0.2846          0.6804E+06
   5577      1     71     86      0.2880          0.6804E+06
   5578      1     71     87      0.2912          0.6804E+06
   5579      1     71     88      0.2935          0.6804E+06
   5580      1     71     89      0.2961          0.6804E+06
   5581      1     71     90      0.2989          0.6804E+06
   5582      1     71     91      0.3017          0.6804E+06
   5583      1     71     92      0.3053          0.6804E+06
   5584      1     71     93      0.3083          0.6804E+06
   5585      1     71     94      0.3120          0.6804E+06
   5586      1     71     95      0.3160          0.6804E+06
   5587      1     71     96      0.3194          0.6804E+06
   5588      1     71     97      0.3226          0.6804E+06
   5589      1     71     98      0.3249          0.6804E+06
   5590      1     71     99      0.3268          0.6804E+06
   5591      1     71    100      0.3278          0.6804E+06
   5592      1     72      1       1.041          0.6804E+06
   5593      1     72      2       1.017          0.6804E+06
   5594      1     72      3      0.9919          0.6804E+06
   5595      1     72      4      0.9595          0.6804E+06
   5596      1     72      5      0.9222          0.6804E+06
   5597      1     72      6      0.8850          0.6804E+06
   5598      1     72      7      0.8329          0.6804E+06
   5599      1     72      8      0.7633          0.6804E+06
   5600      1     72      9      0.6782          0.6804E+06
   5601      1     72     10      0.5649          0.6804E+06
   5602      1     72     11      0.4641          0.6804E+06
   5603      1     72     12      0.3678          0.6804E+06
   5604      1     72     13      0.3126          0.6804E+06
   5605      1     72     14      0.2887          0.6804E+06
   5606      1     72     15      0.2699          0.6804E+06
   5607      1     72     16      0.2557          0.6804E+06
   5608      1     72     17      0.2422          0.6804E+06
   5609      1     72     18      0.2301          0.6804E+06
   5610      1     72     19      0.2203          0.6804E+06
   5611      1     72     20      0.2058          0.6804E+06
   5612      1     72     21      0.1849          0.6804E+06
   5613      1     72     22      0.1623          0.6804E+06
   5614      1     72     23      0.1385          0.6804E+06
   5615      1     72     24      0.1200          0.6804E+06
   5616      1     72     25      0.1024          0.6804E+06
   5617      1     72     26      0.9081E-01      0.6804E+06
   5618      1     72     27      0.8636E-01      0.6804E+06
   5619      1     72     28      0.8408E-01      0.6804E+06
   5620      1     72     29      0.8199E-01      0.6804E+06
   5621      1     72     30      0.7946E-01      0.6804E+06
   5622      1     72     31      0.8053E-01      0.6804E+06
   5623      1     72     76      0.2759          0.6804E+06
   5624      1     72     77      0.2839          0.6804E+06
   5625      1     72     78      0.2884          0.6804E+06
   5626      1     72     79      0.2909          0.6804E+06
   5627      1     72     80      0.2920          0.6804E+06
   5628      1     72     81      0.2922          0.6804E+06
   5629      1     72     82      0.2904          0.6804E+06
   5630      1     72     83      0.2896          0.6804E+06
   5631      1     72     84      0.2901          0.6804E+06
   5632      1     72     85      0.2908          0.6804E+06
   5633      1     72     86      0.2924          0.6804E+06
   5634      1     72     87      0.2942          0.6804E+06
   5635      1     72     88      0.2959          0.6804E+06
   5636      1     72     89      0.2982          0.6804E+06
   5637      1     72     90      0.3009          0.6804E+06
   5638      1     72     91      0.3037          0.6804E+06
   5639      1     72     92      0.3072          0.6804E+06
   5640      1     72     93      0.3101          0.6804E+06
   5641      1     72     94      0.3135          0.6804E+06
   5642      1     72     95      0.3171          0.6804E+06
   5643      1     72     96      0.3201          0.6804E+06
   5644      1     72     97      0.3230          0.6804E+06
   5645      1     72     98      0.3250          0.6804E+06
   5646      1     72     99      0.3267          0.6804E+06
   5647      1     72    100      0.3278          0.6804E+06
   5648      1     73      1       1.035          0.6804E+06
   5649      1     73      2       1.015          0.6804E+06
   5650      1     73      3      0.9945          0.6804E+06
   5651      1     73      4      0.9694          0.6804E+06
   5652      1     73      5      0.9434          0.6804E+06
   5653      1     73      6      0.9195          0.6804E+06
   5654      1     73      7      0.8851          0.6804E+06
   5655      1     73      8      0.8276          0.6804E+06
   5656      1     73      9      0.7387          0.6804E+06
   5657      1     73     10      0.6230          0.6804E+06
   5658      1     73     11      0.5239          0.6804E+06
   5659      1     73     12      0.4279          0.6804E+06
   5660      1     73     13      0.3649          0.6804E+06
   5661      1     73     14      0.3318          0.6804E+06
   5662      1     73     15      0.3039          0.6804E+06
   5663      1     73     16      0.2827          0.6804E+06
   5664      1     73     17      0.2617          0.6804E+06
   5665      1     73     18      0.2429          0.6804E+06
   5666      1     73     19      0.2268          0.6804E+06
   5667      1     73     20      0.2069          0.6804E+06
   5668      1     73     21      0.1843          0.6804E+06
   5669      1     73     22      0.1636          0.6804E+06
   5670      1     73     23      0.1416          0.6804E+06
   5671      1     73     24      0.1243          0.6804E+06
   5672      1     73     25      0.1073          0.6804E+06
   5673      1     73     26      0.9514E-01      0.6804E+06
   5674      1     73     27      0.8796E-01      0.6804E+06
   5675      1     73     28      0.8118E-01      0.6804E+06
   5676      1     73     29      0.7485E-01      0.6804E+06
   5677      1     73     30      0.6983E-01      0.6804E+06
   5678      1     73     31      0.6996E-01      0.6804E+06
   5679      1     73     32      0.7190E-01      0.6804E+06
   5680      1     73     78      0.3037          0.6804E+06
   5681      1     73     79      0.3039          0.6804E+06
   5682      1     73     80      0.3034          0.6804E+06
   5683      1     73     81      0.3019          0.6804E+06
   5684      1     73     82      0.2989          0.6804E+06
   5685      1     73     83      0.2967          0.6804E+06
   5686      1     73     84      0.2956          0.6804E+06
   5687      1     73     85      0.2948          0.6804E+06
   5688      1     73     86      0.2950          0.6804E+06
   5689      1     73     87      0.2958          0.6804E+06
   5690      1     73     88      0.2970          0.6804E+06
   5691      1     73     89      0.2991          0.6804E+06
   5692      1     73     90      0.3017          0.6804E+06
   5693      1     73     91      0.3045          0.6804E+06
   5694      1     73     92      0.3080          0.6804E+06
   5695      1     73     93      0.3108          0.6804E+06
   5696      1     73     94      0.3140          0.6804E+06
   5697      1     73     95      0.3174          0.6804E+06
   5698      1     73     96      0.3201          0.6804E+06
   5699      1     73     97      0.3227          0.6804E+06
   5700      1     73     98      0.3246          0.6804E+06
   5701      1     73     99      0.3262          0.6804E+06
   5702      1     73    100      0.3273          0.6804E+06
   5703      1     74      1       1.026          0.6804E+06
   5704      1     74      2       1.008          0.6804E+06
   5705      1     74      3      0.9908          0.6804E+06
   5706      1     74      4      0.9715          0.6804E+06
   5707      1     74      5      0.9550          0.6804E+06
   5708      1     74      6      0.9410          0.6804E+06
   5709      1     74      7      0.9176          0.6804E+06
   5710      1     74      8      0.8699          0.6804E+06
   5711      1     74      9      0.7894          0.6804E+06
   5712      1     74     10      0.6835          0.6804E+06
   5713      1     74     11      0.5932          0.6804E+06
   5714      1     74     12      0.5029          0.6804E+06
   5715      1     74     13      0.4336          0.6804E+06
   5716      1     74     14      0.3892          0.6804E+06
   5717      1     74     15      0.3487          0.6804E+06
   5718      1     74     16      0.3174          0.6804E+06
   5719      1     74     17      0.2861          0.6804E+06
   5720      1     74     18      0.2591          0.6804E+06
   5721      1     74     19      0.2364          0.6804E+06
   5722      1     74     20      0.2106          0.6804E+06
   5723      1     74     21      0.1852          0.6804E+06
   5724      1     74     22      0.1656          0.6804E+06
   5725      1     74     23      0.1452          0.6804E+06
   5726      1     74     24      0.1289          0.6804E+06
   5727      1     74     25      0.1121          0.6804E+06
   5728      1     74     26      0.9792E-01      0.6804E+06
   5729      1     74     27      0.8700E-01      0.6804E+06
   5730      1     74     28      0.7528E-01      0.6804E+06
   5731      1     74     29      0.6438E-01      0.6804E+06
   5732      1     74     30      0.5653E-01      0.6804E+06
   5733      1     74     31      0.5697E-01      0.6804E+06
   5734      1     74     32      0.6116E-01      0.6804E+06
   5735      1     74     33      0.6568E-01      0.6804E+06
   5736      1     74     80      0.3134          0.6804E+06
   5737      1     74     81      0.3107          0.6804E+06
   5738      1     74     82      0.3066          0.6804E+06
   5739      1     74     83      0.3032          0.6804E+06
   5740      1     74     84      0.3003          0.6804E+06
   5741      1     74     85      0.2981          0.6804E+06
   5742      1     74     86      0.2966          0.6804E+06
   5743      1     74     87      0.2962          0.6804E+06
   5744      1     74     88      0.2971          0.6804E+06
   5745      1     74     89      0.2991          0.6804E+06
   5746      1     74     90      0.3018          0.6804E+06
   5747      1     74     91      0.3047          0.6804E+06
   5748      1     74     92      0.3082          0.6804E+06
   5749      1     74     93      0.3111          0.6804E+06
   5750      1     74     94      0.3142          0.6804E+06
   5751      1     74     95      0.3172          0.6804E+06
   5752      1     74     96      0.3197          0.6804E+06
   5753      1     74     97      0.3220          0.6804E+06
   5754      1     74     98      0.3237          0.6804E+06
   5755      1     74     99      0.3252          0.6804E+06
   5756      1     74    100      0.3263          0.6804E+06
   5757      1     75      1       1.016          0.6804E+06
   5758      1     75      2      0.9983          0.6804E+06
   5759      1     75      3      0.9817          0.6804E+06
   5760      1     75      4      0.9645          0.6804E+06
   5761      1     75      5      0.9552          0.6804E+06
   5762      1     75      6      0.9469          0.6804E+06
   5763      1     75      7      0.9281          0.6804E+06
   5764      1     75      8      0.8868          0.6804E+06
   5765      1     75      9      0.8213          0.6804E+06
   5766      1     75     10      0.7319          0.6804E+06
   5767      1     75     11      0.6532          0.6804E+06
   5768      1     75     12      0.5702          0.6804E+06
   5769      1     75     13      0.4986          0.6804E+06
   5770      1     75     14      0.4465          0.6804E+06
   5771      1     75     15      0.3956          0.6804E+06
   5772      1     75     16      0.3550          0.6804E+06
   5773      1     75     17      0.3131          0.6804E+06
   5774      1     75     18      0.2790          0.6804E+06
   5775      1     75     19      0.2512          0.6804E+06
   5776      1     75     20      0.2205          0.6804E+06
   5777      1     75     21      0.1922          0.6804E+06
   5778      1     75     22      0.1718          0.6804E+06
   5779      1     75     23      0.1510          0.6804E+06
   5780      1     75     24      0.1344          0.6804E+06
   5781      1     75     25      0.1171          0.6804E+06
   5782      1     75     26      0.1013          0.6804E+06
   5783      1     75     27      0.8772E-01      0.6804E+06
   5784      1     75     28      0.7226E-01      0.6804E+06
   5785      1     75     29      0.5739E-01      0.6804E+06
   5786      1     75     30      0.4658E-01      0.6804E+06
   5787      1     75     31      0.4732E-01      0.6804E+06
   5788      1     75     32      0.5269E-01      0.6804E+06
   5789      1     75     33      0.5864E-01      0.6804E+06
   5790      1     75     34      0.6090E-01      0.6804E+06
   5791      1     75     35      0.5981E-01      0.6804E+06
   5792      1     75     36      0.5356E-01      0.6804E+06
   5793      1     75     37      0.4033E-01      0.6804E+06
   5794      1     75     38      0.2141E-01      0.6804E+06
   5795      1     75     39     -0.4928E-02      0.6804E+06
   5796      1     75     40     -0.4860E-01      0.6804E+06
   5797      1     75     82      0.3118          0.6804E+06
   5798      1     75     83      0.3075          0.6804E+06
   5799      1     75     84      0.3034          0.6804E+06
   5800      1     75     85      0.3000          0.6804E+06
   5801      1     75     86      0.2970          0.6804E+06
   5802      1     75     87      0.2954          0.6804E+06
   5803      1     75     88      0.2959          0.6804E+06
   5804      1     75     89      0.2979          0.6804E+06
   5805      1     75     90      0.3010          0.6804E+06
   5806      1     75     91      0.3042          0.6804E+06
   5807      1     75     92      0.3080          0.6804E+06
   5808      1     75     93      0.3110          0.6804E+06
   5809      1     75     94      0.3141          0.6804E+06
   5810      1     75     95      0.3169          0.6804E+06
   5811      1     75     96      0.3190          0.6804E+06
   5812      1     75     97      0.3210          0.6804E+06
   5813      1     75     98      0.3225          0.6804E+06
   5814      1     75     99      0.3240          0.6804E+06
   5815      1     75    100      0.3251          0.6804E+06
   5816      1     76      1       1.008          0.6804E+06
   5817      1     76      2      0.9897          0.6804E+06
   5818      1     76      3      0.9721          0.6804E+06
   5819      1     76      4      0.9540          0.6804E+06
   5820      1     76      5      0.9498          0.6804E+06
   5821      1     76      6      0.9446          0.6804E+06
   5822      1     76      7      0.9283          0.6804E+06
   5823      1     76      8      0.8926          0.6804E+06
   5824      1     76      9      0.8398          0.6804E+06
   5825      1     76     10      0.7654          0.6804E+06
   5826      1     76     11      0.6969          0.6804E+06
   5827      1     76     12      0.6210          0.6804E+06
   5828      1     76     13      0.5498          0.6804E+06
   5829      1     76     14      0.4940          0.6804E+06
   5830      1     76     15      0.4369          0.6804E+06
   5831      1     76     16      0.3905          0.6804E+06
   5832      1     76     17      0.3418          0.6804E+06
   5833      1     76     18      0.3015          0.6804E+06
   5834      1     76     19      0.2689          0.6804E+06
   5835      1     76     20      0.2341          0.6804E+06
   5836      1     76     21      0.2034          0.6804E+06
   5837      1     76     22      0.1810          0.6804E+06
   5838      1     76     23      0.1586          0.6804E+06
   5839      1     76     24      0.1410          0.6804E+06
   5840      1     76     25      0.1227          0.6804E+06
   5841      1     76     26      0.1048          0.6804E+06
   5842      1     76     27      0.9022E-01      0.6804E+06
   5843      1     76     28      0.7400E-01      0.6804E+06
   5844      1     76     29      0.5855E-01      0.6804E+06
   5845      1     76     30      0.4888E-01      0.6804E+06
   5846      1     76     31      0.4634E-01      0.6804E+06
   5847      1     76     32      0.4826E-01      0.6804E+06
   5848      1     76     33      0.5256E-01      0.6804E+06
   5849      1     76     34      0.5650E-01      0.6804E+06
   5850      1     76     35      0.5869E-01      0.6804E+06
   5851      1     76     36      0.5778E-01      0.6804E+06
   5852      1     76     37      0.5154E-01      0.6804E+06
   5853      1     76     38      0.4008E-01      0.6804E+06
   5854      1     76     39      0.1864E-01      0.6804E+06
   5855      1     76     40     -0.8048E-02      0.6804E+06
   5856      1     76     41     -0.6197E-01      0.6804E+06
   5857      1     76     42     -0.1574          0.6804E+06
   5858      1     76     43     -0.2362          0.6804E+06
   5859      1     76     44     -0.2399          0.6804E+06
   5860      1     76     45     -0.2224          0.6804E+06
   5861      1     76     46     -0.1938          0.6804E+06
   5862      1     76     47     -0.1576          0.6804E+06
   5863      1     76     48     -0.1292          0.6804E+06
   5864      1     76     49     -0.9142E-01      0.6804E+06
   5865      1     76     50     -0.8323E-01      0.6804E+06
   5866      1     76     51     -0.7015E-01      0.6804E+06
   5867      1     76     52     -0.8705E-01      0.6804E+06
   5868      1     76     53     -0.9422E-01      0.6804E+06
   5869      1     76     54     -0.6810E-01      0.6804E+06
   5870      1     76     55     -0.5578E-01      0.6804E+06
   5871      1     76     83      0.3105          0.6804E+06
   5872      1     76     84      0.3053          0.6804E+06
   5873      1     76     85      0.3009          0.6804E+06
   5874      1     76     86      0.2964          0.6804E+06
   5875      1     76     87      0.2937          0.6804E+06
   5876      1     76     88      0.2939          0.6804E+06
   5877      1     76     89      0.2966          0.6804E+06
   5878      1     76     90      0.3003          0.6804E+06
   5879      1     76     91      0.3038          0.6804E+06
   5880      1     76     92      0.3079          0.6804E+06
   5881      1     76     93      0.3109          0.6804E+06
   5882      1     76     94      0.3140          0.6804E+06
   5883      1     76     95      0.3165          0.6804E+06
   5884      1     76     96      0.3184          0.6804E+06
   5885      1     76     97      0.3200          0.6804E+06
   5886      1     76     98      0.3214          0.6804E+06
   5887      1     76     99      0.3228          0.6804E+06
   5888      1     76    100      0.3241          0.6804E+06
   5889      1     77      1       1.001          0.6804E+06
   5890      1     77      2      0.9839          0.6804E+06
   5891      1     77      3      0.9683          0.6804E+06
   5892      1     77      4      0.9532          0.6804E+06
   5893      1     77      5      0.9484          0.6804E+06
   5894      1     77      6      0.9436          0.6804E+06
   5895      1     77      7      0.9310          0.6804E+06
   5896      1     77      8      0.9031          0.6804E+06
   5897      1     77      9      0.8591          0.6804E+06
   5898      1     77     10      0.7963          0.6804E+06
   5899      1     77     11      0.7374          0.6804E+06
   5900      1     77     12      0.6697          0.6804E+06
   5901      1     77     13      0.6008          0.6804E+06
   5902      1     77     14      0.5437          0.6804E+06
   5903      1     77     15      0.4831          0.6804E+06
   5904      1     77     16      0.4330          0.6804E+06
   5905      1     77     17      0.3796          0.6804E+06
   5906      1     77     18      0.3320          0.6804E+06
   5907      1     77     19      0.2933          0.6804E+06
   5908      1     77     20      0.2531          0.6804E+06
   5909      1     77     21      0.2191          0.6804E+06
   5910      1     77     22      0.1943          0.6804E+06
   5911      1     77     23      0.1700          0.6804E+06
   5912      1     77     24      0.1513          0.6804E+06
   5913      1     77     25      0.1318          0.6804E+06
   5914      1     77     26      0.1117          0.6804E+06
   5915      1     77     27      0.9592E-01      0.6804E+06
   5916      1     77     28      0.7905E-01      0.6804E+06
   5917      1     77     29      0.6318E-01      0.6804E+06
   5918      1     77     30      0.5343E-01      0.6804E+06
   5919      1     77     31      0.4698E-01      0.6804E+06
   5920      1     77     32      0.4501E-01      0.6804E+06
   5921      1     77     33      0.4714E-01      0.6804E+06
   5922      1     77     34      0.5264E-01      0.6804E+06
   5923      1     77     35      0.5666E-01      0.6804E+06
   5924      1     77     36      0.5944E-01      0.6804E+06
   5925      1     77     37      0.5884E-01      0.6804E+06
   5926      1     77     38      0.5307E-01      0.6804E+06
   5927      1     77     39      0.3792E-01      0.6804E+06
   5928      1     77     40      0.1553E-01      0.6804E+06
   5929      1     77     41     -0.1409E-01      0.6804E+06
   5930      1     77     42     -0.6773E-01      0.6804E+06
   5931      1     77     43     -0.1318          0.6804E+06
   5932      1     77     44     -0.2024          0.6804E+06
   5933      1     77     45     -0.2205          0.6804E+06
   5934      1     77     46     -0.1914          0.6804E+06
   5935      1     77     47     -0.1720          0.6804E+06
   5936      1     77     48     -0.1567          0.6804E+06
   5937      1     77     49     -0.1345          0.6804E+06
   5938      1     77     50     -0.1181          0.6804E+06
   5939      1     77     51     -0.1069          0.6804E+06
   5940      1     77     52     -0.1091          0.6804E+06
   5941      1     77     53     -0.1079          0.6804E+06
   5942      1     77     54     -0.9501E-01      0.6804E+06
   5943      1     77     55     -0.1144          0.6804E+06
   5944      1     77     56     -0.9585E-01      0.6804E+06
   5945      1     77     57     -0.3554E-01      0.6804E+06
   5946      1     77     58      0.9135E-02      0.6804E+06
   5947      1     77     59      0.2871E-01      0.6804E+06
   5948      1     77     60      0.4551E-01      0.6804E+06
   5949      1     77     61      0.5443E-01      0.6804E+06
   5950      1     77     62      0.6121E-01      0.6804E+06
   5951      1     77     63      0.6980E-01      0.6804E+06
   5952      1     77     84      0.3073          0.6804E+06
   5953      1     77     85      0.3018          0.6804E+06
   5954      1     77     86      0.2957          0.6804E+06
   5955      1     77     87      0.2917          0.6804E+06
   5956      1     77     88      0.2919          0.6804E+06
   5957      1     77     89      0.2956          0.6804E+06
   5958      1     77     90      0.3000          0.6804E+06
   5959      1     77     91      0.3039          0.6804E+06
   5960      1     77     92      0.3081          0.6804E+06
   5961      1     77     93      0.3112          0.6804E+06
   5962      1     77     94      0.3141          0.6804E+06
   5963      1     77     95      0.3165          0.6804E+06
   5964      1     77     96      0.3179          0.6804E+06
   5965      1     77     97      0.3191          0.6804E+06
   5966      1     77     98      0.3202          0.6804E+06
   5967      1     77     99      0.3217          0.6804E+06
   5968      1     77    100      0.3232          0.6804E+06
   5969      1     78      1      0.9966          0.6804E+06
   5970      1     78      2      0.9815          0.6804E+06
   5971      1     78      3      0.9683          0.6804E+06
   5972      1     78      4      0.9558          0.6804E+06
   5973      1     78      5      0.9494          0.6804E+06
   5974      1     78      6      0.9436          0.6804E+06
   5975      1     78      7      0.9321          0.6804E+06
   5976      1     78      8      0.9085          0.6804E+06
   5977      1     78      9      0.8707          0.6804E+06
   5978      1     78     10      0.8162          0.6804E+06
   5979      1     78     11      0.7641          0.6804E+06
   5980      1     78     12      0.7026          0.6804E+06
   5981      1     78     13      0.6378          0.6804E+06
   5982      1     78     14      0.5822          0.6804E+06
   5983      1     78     15      0.5215          0.6804E+06
   5984      1     78     16      0.4701          0.6804E+06
   5985      1     78     17      0.4138          0.6804E+06
   5986      1     78     18      0.3609          0.6804E+06
   5987      1     78     19      0.3169          0.6804E+06
   5988      1     78     20      0.2711          0.6804E+06
   5989      1     78     21      0.2337          0.6804E+06
   5990      1     78     22      0.2077          0.6804E+06
   5991      1     78     23      0.1826          0.6804E+06
   5992      1     78     24      0.1633          0.6804E+06
   5993      1     78     25      0.1426          0.6804E+06
   5994      1     78     26      0.1209          0.6804E+06
   5995      1     78     27      0.1036          0.6804E+06
   5996      1     78     28      0.8531E-01      0.6804E+06
   5997      1     78     29      0.6839E-01      0.6804E+06
   5998      1     78     30      0.5733E-01      0.6804E+06
   5999      1     78     31      0.4869E-01      0.6804E+06
   6000      1     78     32      0.4477E-01      0.6804E+06
   6001      1     78     33      0.4533E-01      0.6804E+06
   6002      1     78     34      0.5114E-01      0.6804E+06
   6003      1     78     35      0.5588E-01      0.6804E+06
   6004      1     78     36      0.5993E-01      0.6804E+06
   6005      1     78     37      0.6158E-01      0.6804E+06
   6006      1     78     38      0.5956E-01      0.6804E+06
   6007      1     78     39      0.4993E-01      0.6804E+06
   6008      1     78     40      0.3469E-01      0.6804E+06
   6009      1     78     41      0.1050E-01      0.6804E+06
   6010      1     78     42     -0.1511E-01      0.6804E+06
   6011      1     78     43     -0.4454E-01      0.6804E+06
   6012      1     78     44     -0.1072          0.6804E+06
   6013      1     78     45     -0.1426          0.6804E+06
   6014      1     78     46     -0.1364          0.6804E+06
   6015      1     78     47     -0.1325          0.6804E+06
   6016      1     78     48     -0.1254          0.6804E+06
   6017      1     78     49     -0.1234          0.6804E+06
   6018      1     78     50     -0.1231          0.6804E+06
   6019      1     78     51     -0.1226          0.6804E+06
   6020      1     78     52     -0.1204          0.6804E+06
   6021      1     78     53     -0.1176          0.6804E+06
   6022      1     78     54     -0.1074          0.6804E+06
   6023      1     78     55     -0.7695E-01      0.6804E+06
   6024      1     78     56     -0.3721E-01      0.6804E+06
   6025      1     78     57      0.4687E-03      0.6804E+06
   6026      1     78     58      0.2799E-01      0.6804E+06
   6027      1     78     59      0.4653E-01      0.6804E+06
   6028      1     78     60      0.6140E-01      0.6804E+06
   6029      1     78     61      0.6920E-01      0.6804E+06
   6030      1     78     62      0.7526E-01      0.6804E+06
   6031      1     78     63      0.8481E-01      0.6804E+06
   6032      1     78     64      0.9788E-01      0.6804E+06
   6033      1     78     65      0.1202          0.6804E+06
   6034      1     78     66      0.1457          0.6804E+06
   6035      1     78     85      0.3031          0.6804E+06
   6036      1     78     86      0.2962          0.6804E+06
   6037      1     78     87      0.2915          0.6804E+06
   6038      1     78     88      0.2918          0.6804E+06
   6039      1     78     89      0.2960          0.6804E+06
   6040      1     78     90      0.3008          0.6804E+06
   6041      1     78     91      0.3047          0.6804E+06
   6042      1     78     92      0.3089          0.6804E+06
   6043      1     78     93      0.3119          0.6804E+06
   6044      1     78     94      0.3148          0.6804E+06
   6045      1     78     95      0.3169          0.6804E+06
   6046      1     78     96      0.3182          0.6804E+06
   6047      1     78     97      0.3189          0.6804E+06
   6048      1     78     98      0.3198          0.6804E+06
   6049      1     78     99      0.3214          0.6804E+06
   6050      1     78    100      0.3231          0.6804E+06
   6051      1     79      1      0.9930          0.6804E+06
   6052      1     79      2      0.9799          0.6804E+06
   6053      1     79      3      0.9688          0.6804E+06
   6054      1     79      4      0.9581          0.6804E+06
   6055      1     79      5      0.9501          0.6804E+06
   6056      1     79      6      0.9428          0.6804E+06
   6057      1     79      7      0.9308          0.6804E+06
   6058      1     79      8      0.9096          0.6804E+06
   6059      1     79      9      0.8781          0.6804E+06
   6060      1     79     10      0.8324          0.6804E+06
   6061      1     79     11      0.7875          0.6804E+06
   6062      1     79     12      0.7324          0.6804E+06
   6063      1     79     13      0.6734          0.6804E+06
   6064      1     79     14      0.6212          0.6804E+06
   6065      1     79     15      0.5627          0.6804E+06
   6066      1     79     16      0.5119          0.6804E+06
   6067      1     79     17      0.4540          0.6804E+06
   6068      1     79     18      0.3961          0.6804E+06
   6069      1     79     19      0.3456          0.6804E+06
   6070      1     79     20      0.2921          0.6804E+06
   6071      1     79     21      0.2510          0.6804E+06
   6072      1     79     22      0.2254          0.6804E+06
   6073      1     79     23      0.2012          0.6804E+06
   6074      1     79     24      0.1819          0.6804E+06
   6075      1     79     25      0.1598          0.6804E+06
   6076      1     79     26      0.1358          0.6804E+06
   6077      1     79     27      0.1158          0.6804E+06
   6078      1     79     28      0.9451E-01      0.6804E+06
   6079      1     79     29      0.7495E-01      0.6804E+06
   6080      1     79     30      0.6192E-01      0.6804E+06
   6081      1     79     31      0.5244E-01      0.6804E+06
   6082      1     79     32      0.4801E-01      0.6804E+06
   6083      1     79     33      0.4721E-01      0.6804E+06
   6084      1     79     34      0.5186E-01      0.6804E+06
   6085      1     79     35      0.5652E-01      0.6804E+06
   6086      1     79     36      0.6092E-01      0.6804E+06
   6087      1     79     37      0.6354E-01      0.6804E+06
   6088      1     79     38      0.6399E-01      0.6804E+06
   6089      1     79     39      0.5964E-01      0.6804E+06
   6090      1     79     40      0.5134E-01      0.6804E+06
   6091      1     79     41      0.3708E-01      0.6804E+06
   6092      1     79     42      0.1872E-01      0.6804E+06
   6093      1     79     43      0.2921E-02      0.6804E+06
   6094      1     79     44     -0.2848E-01      0.6804E+06
   6095      1     79     45     -0.4160E-01      0.6804E+06
   6096      1     79     46     -0.2580E-01      0.6804E+06
   6097      1     79     47     -0.2476E-01      0.6804E+06
   6098      1     79     48     -0.2898E-01      0.6804E+06
   6099      1     79     49     -0.3123E-01      0.6804E+06
   6100      1     79     50     -0.2816E-01      0.6804E+06
   6101      1     79     51     -0.2968E-01      0.6804E+06
   6102      1     79     52     -0.2876E-01      0.6804E+06
   6103      1     79     53     -0.2502E-01      0.6804E+06
   6104      1     79     54     -0.1882E-01      0.6804E+06
   6105      1     79     55     -0.8717E-02      0.6804E+06
   6106      1     79     56      0.8236E-02      0.6804E+06
   6107      1     79     57      0.3112E-01      0.6804E+06
   6108      1     79     58      0.5396E-01      0.6804E+06
   6109      1     79     59      0.6928E-01      0.6804E+06
   6110      1     79     60      0.8204E-01      0.6804E+06
   6111      1     79     61      0.8909E-01      0.6804E+06
   6112      1     79     62      0.9480E-01      0.6804E+06
   6113      1     79     63      0.1052          0.6804E+06
   6114      1     79     64      0.1229          0.6804E+06
   6115      1     79     65      0.1452          0.6804E+06
   6116      1     79     66      0.1663          0.6804E+06
   6117      1     79     67      0.1837          0.6804E+06
   6118      1     79     68      0.2034          0.6804E+06
   6119      1     79     86      0.3006          0.6804E+06
   6120      1     79     87      0.2967          0.6804E+06
   6121      1     79     88      0.2965          0.6804E+06
   6122      1     79     89      0.2994          0.6804E+06
   6123      1     79     90      0.3033          0.6804E+06
   6124      1     79     91      0.3068          0.6804E+06
   6125      1     79     92      0.3107          0.6804E+06
   6126      1     79     93      0.3136          0.6804E+06
   6127      1     79     94      0.3163          0.6804E+06
   6128      1     79     95      0.3184          0.6804E+06
   6129      1     79     96      0.3195          0.6804E+06
   6130      1     79     97      0.3201          0.6804E+06
   6131      1     79     98      0.3208          0.6804E+06
   6132      1     79     99      0.3223          0.6804E+06
   6133      1     79    100      0.3238          0.6804E+06
   6134      1     80      1      0.9899          0.6804E+06
   6135      1     80      2      0.9776          0.6804E+06
   6136      1     80      3      0.9673          0.6804E+06
   6137      1     80      4      0.9571          0.6804E+06
   6138      1     80      5      0.9485          0.6804E+06
   6139      1     80      6      0.9403          0.6804E+06
   6140      1     80      7      0.9277          0.6804E+06
   6141      1     80      8      0.9079          0.6804E+06
   6142      1     80      9      0.8820          0.6804E+06
   6143      1     80     10      0.8444          0.6804E+06
   6144      1     80     11      0.8063          0.6804E+06
   6145      1     80     12      0.7577          0.6804E+06
   6146      1     80     13      0.7044          0.6804E+06
   6147      1     80     14      0.6562          0.6804E+06
   6148      1     80     15      0.6013          0.6804E+06
   6149      1     80     16      0.5529          0.6804E+06
   6150      1     80     17      0.4964          0.6804E+06
   6151      1     80     18      0.4353          0.6804E+06
   6152      1     80     19      0.3786          0.6804E+06
   6153      1     80     20      0.3165          0.6804E+06
   6154      1     80     21      0.2724          0.6804E+06
   6155      1     80     22      0.2494          0.6804E+06
   6156      1     80     23      0.2278          0.6804E+06
   6157      1     80     24      0.2080          0.6804E+06
   6158      1     80     25      0.1835          0.6804E+06
   6159      1     80     26      0.1560          0.6804E+06
   6160      1     80     27      0.1323          0.6804E+06
   6161      1     80     28      0.1066          0.6804E+06
   6162      1     80     29      0.8268E-01      0.6804E+06
   6163      1     80     30      0.6861E-01      0.6804E+06
   6164      1     80     31      0.5917E-01      0.6804E+06
   6165      1     80     32      0.5480E-01      0.6804E+06
   6166      1     80     33      0.5309E-01      0.6804E+06
   6167      1     80     34      0.5534E-01      0.6804E+06
   6168      1     80     35      0.5882E-01      0.6804E+06
   6169      1     80     36      0.6308E-01      0.6804E+06
   6170      1     80     37      0.6638E-01      0.6804E+06
   6171      1     80     38      0.6723E-01      0.6804E+06
   6172      1     80     39      0.6600E-01      0.6804E+06
   6173      1     80     40      0.6264E-01      0.6804E+06
   6174      1     80     41      0.5548E-01      0.6804E+06
   6175      1     80     42      0.4323E-01      0.6804E+06
   6176      1     80     43      0.2925E-01      0.6804E+06
   6177      1     80     44      0.1918E-01      0.6804E+06
   6178      1     80     45      0.1882E-01      0.6804E+06
   6179      1     80     46      0.2445E-01      0.6804E+06
   6180      1     80     47      0.2457E-01      0.6804E+06
   6181      1     80     48      0.1905E-01      0.6804E+06
   6182      1     80     49      0.1358E-01      0.6804E+06
   6183      1     80     50      0.1938E-01      0.6804E+06
   6184      1     80     51      0.2135E-01      0.6804E+06
   6185      1     80     52      0.2242E-01      0.6804E+06
   6186      1     80     53      0.2361E-01      0.6804E+06
   6187      1     80     54      0.2176E-01      0.6804E+06
   6188      1     80     55      0.3291E-01      0.6804E+06
   6189      1     80     56      0.4648E-01      0.6804E+06
   6190      1     80     57      0.6447E-01      0.6804E+06
   6191      1     80     58      0.8213E-01      0.6804E+06
   6192      1     80     59      0.9504E-01      0.6804E+06
   6193      1     80     60      0.1072          0.6804E+06
   6194      1     80     61      0.1153          0.6804E+06
   6195      1     80     62      0.1229          0.6804E+06
   6196      1     80     63      0.1327          0.6804E+06
   6197      1     80     64      0.1487          0.6804E+06
   6198      1     80     65      0.1686          0.6804E+06
   6199      1     80     66      0.1877          0.6804E+06
   6200      1     80     67      0.2039          0.6804E+06
   6201      1     80     68      0.2225          0.6804E+06
   6202      1     80     69      0.2374          0.6804E+06
   6203      1     80     70      0.2532          0.6804E+06
   6204      1     80     71      0.2698          0.6804E+06
   6205      1     80     88      0.3024          0.6804E+06
   6206      1     80     89      0.3041          0.6804E+06
   6207      1     80     90      0.3070          0.6804E+06
   6208      1     80     91      0.3099          0.6804E+06
   6209      1     80     92      0.3132          0.6804E+06
   6210      1     80     93      0.3160          0.6804E+06
   6211      1     80     94      0.3187          0.6804E+06
   6212      1     80     95      0.3209          0.6804E+06
   6213      1     80     96      0.3222          0.6804E+06
   6214      1     80     97      0.3232          0.6804E+06
   6215      1     80     98      0.3240          0.6804E+06
   6216      1     80     99      0.3250          0.6804E+06
   6217      1     80    100      0.3257          0.6804E+06
   6218      1     81      1      0.9873          0.6804E+06
   6219      1     81      2      0.9748          0.6804E+06
   6220      1     81      3      0.9642          0.6804E+06
   6221      1     81      4      0.9540          0.6804E+06
   6222      1     81      5      0.9456          0.6804E+06
   6223      1     81      6      0.9378          0.6804E+06
   6224      1     81      7      0.9260          0.6804E+06
   6225      1     81      8      0.9082          0.6804E+06
   6226      1     81      9      0.8861          0.6804E+06
   6227      1     81     10      0.8542          0.6804E+06
   6228      1     81     11      0.8212          0.6804E+06
   6229      1     81     12      0.7781          0.6804E+06
   6230      1     81     13      0.7292          0.6804E+06
   6231      1     81     14      0.6841          0.6804E+06
   6232      1     81     15      0.6324          0.6804E+06
   6233      1     81     16      0.5867          0.6804E+06
   6234      1     81     17      0.5332          0.6804E+06
   6235      1     81     18      0.4722          0.6804E+06
   6236      1     81     19      0.4140          0.6804E+06
   6237      1     81     20      0.3499          0.6804E+06
   6238      1     81     21      0.3059          0.6804E+06
   6239      1     81     22      0.2829          0.6804E+06
   6240      1     81     23      0.2601          0.6804E+06
   6241      1     81     24      0.2379          0.6804E+06
   6242      1     81     25      0.2098          0.6804E+06
   6243      1     81     26      0.1785          0.6804E+06
   6244      1     81     27      0.1509          0.6804E+06
   6245      1     81     28      0.1198          0.6804E+06
   6246      1     81     29      0.9064E-01      0.6804E+06
   6247      1     81     30      0.7631E-01      0.6804E+06
   6248      1     81     31      0.6747E-01      0.6804E+06
   6249      1     81     32      0.6310E-01      0.6804E+06
   6250      1     81     33      0.6036E-01      0.6804E+06
   6251      1     81     34      0.6055E-01      0.6804E+06
   6252      1     81     35      0.6221E-01      0.6804E+06
   6253      1     81     36      0.6534E-01      0.6804E+06
   6254      1     81     37      0.6907E-01      0.6804E+06
   6255      1     81     38      0.7030E-01      0.6804E+06
   6256      1     81     39      0.6990E-01      0.6804E+06
   6257      1     81     40      0.6899E-01      0.6804E+06
   6258      1     81     41      0.6721E-01      0.6804E+06
   6259      1     81     42      0.6061E-01      0.6804E+06
   6260      1     81     43      0.5408E-01      0.6804E+06
   6261      1     81     44      0.5025E-01      0.6804E+06
   6262      1     81     45      0.5074E-01      0.6804E+06
   6263      1     81     46      0.5356E-01      0.6804E+06
   6264      1     81     47      0.5413E-01      0.6804E+06
   6265      1     81     48      0.5197E-01      0.6804E+06
   6266      1     81     49      0.4898E-01      0.6804E+06
   6267      1     81     50      0.5022E-01      0.6804E+06
   6268      1     81     51      0.5167E-01      0.6804E+06
   6269      1     81     52      0.5304E-01      0.6804E+06
   6270      1     81     53      0.5547E-01      0.6804E+06
   6271      1     81     54      0.6126E-01      0.6804E+06
   6272      1     81     55      0.6774E-01      0.6804E+06
   6273      1     81     56      0.7753E-01      0.6804E+06
   6274      1     81     57      0.9229E-01      0.6804E+06
   6275      1     81     58      0.1069          0.6804E+06
   6276      1     81     59      0.1191          0.6804E+06
   6277      1     81     60      0.1316          0.6804E+06
   6278      1     81     61      0.1408          0.6804E+06
   6279      1     81     62      0.1502          0.6804E+06
   6280      1     81     63      0.1612          0.6804E+06
   6281      1     81     64      0.1742          0.6804E+06
   6282      1     81     65      0.1903          0.6804E+06
   6283      1     81     66      0.2068          0.6804E+06
   6284      1     81     67      0.2209          0.6804E+06
   6285      1     81     68      0.2372          0.6804E+06
   6286      1     81     69      0.2505          0.6804E+06
   6287      1     81     70      0.2648          0.6804E+06
   6288      1     81     71      0.2791          0.6804E+06
   6289      1     81     72      0.2915          0.6804E+06
   6290      1     81     73      0.3039          0.6804E+06
   6291      1     81     89      0.3084          0.6804E+06
   6292      1     81     90      0.3106          0.6804E+06
   6293      1     81     91      0.3130          0.6804E+06
   6294      1     81     92      0.3159          0.6804E+06
   6295      1     81     93      0.3186          0.6804E+06
   6296      1     81     94      0.3213          0.6804E+06
   6297      1     81     95      0.3236          0.6804E+06
   6298      1     81     96      0.3252          0.6804E+06
   6299      1     81     97      0.3265          0.6804E+06
   6300      1     81     98      0.3273          0.6804E+06
   6301      1     81     99      0.3279          0.6804E+06
   6302      1     81    100      0.3280          0.6804E+06
   6303      1     82      1      0.9850          0.6804E+06
   6304      1     82      2      0.9718          0.6804E+06
   6305      1     82      3      0.9600          0.6804E+06
   6306      1     82      4      0.9491          0.6804E+06
   6307      1     82      5      0.9421          0.6804E+06
   6308      1     82      6      0.9359          0.6804E+06
   6309      1     82      7      0.9258          0.6804E+06
   6310      1     82      8      0.9106          0.6804E+06
   6311      1     82      9      0.8921          0.6804E+06
   6312      1     82     10      0.8655          0.6804E+06
   6313      1     82     11      0.8377          0.6804E+06
   6314      1     82     12      0.8005          0.6804E+06
   6315      1     82     13      0.7551          0.6804E+06
   6316      1     82     14      0.7127          0.6804E+06
   6317      1     82     15      0.6637          0.6804E+06
   6318      1     82     16      0.6205          0.6804E+06
   6319      1     82     17      0.5704          0.6804E+06
   6320      1     82     18      0.5144          0.6804E+06
   6321      1     82     19      0.4626          0.6804E+06
   6322      1     82     20      0.4066          0.6804E+06
   6323      1     82     21      0.3648          0.6804E+06
   6324      1     82     22      0.3372          0.6804E+06
   6325      1     82     23      0.3074          0.6804E+06
   6326      1     82     24      0.2799          0.6804E+06
   6327      1     82     25      0.2462          0.6804E+06
   6328      1     82     26      0.2099          0.6804E+06
   6329      1     82     27      0.1777          0.6804E+06
   6330      1     82     28      0.1418          0.6804E+06
   6331      1     82     29      0.1090          0.6804E+06
   6332      1     82     30      0.9295E-01      0.6804E+06
   6333      1     82     31      0.8270E-01      0.6804E+06
   6334      1     82     32      0.7687E-01      0.6804E+06
   6335      1     82     33      0.7207E-01      0.6804E+06
   6336      1     82     34      0.6935E-01      0.6804E+06
   6337      1     82     35      0.6826E-01      0.6804E+06
   6338      1     82     36      0.6823E-01      0.6804E+06
   6339      1     82     37      0.6906E-01      0.6804E+06
   6340      1     82     38      0.6936E-01      0.6804E+06
   6341      1     82     39      0.7038E-01      0.6804E+06
   6342      1     82     40      0.7195E-01      0.6804E+06
   6343      1     82     41      0.7384E-01      0.6804E+06
   6344      1     82     42      0.7322E-01      0.6804E+06
   6345      1     82     43      0.7371E-01      0.6804E+06
   6346      1     82     44      0.7529E-01      0.6804E+06
   6347      1     82     45      0.7636E-01      0.6804E+06
   6348      1     82     46      0.7753E-01      0.6804E+06
   6349      1     82     47      0.7820E-01      0.6804E+06
   6350      1     82     48      0.7750E-01      0.6804E+06
   6351      1     82     49      0.7578E-01      0.6804E+06
   6352      1     82     50      0.7534E-01      0.6804E+06
   6353      1     82     51      0.7593E-01      0.6804E+06
   6354      1     82     52      0.7831E-01      0.6804E+06
   6355      1     82     53      0.8291E-01      0.6804E+06
   6356      1     82     54      0.9131E-01      0.6804E+06
   6357      1     82     55      0.9968E-01      0.6804E+06
   6358      1     82     56      0.1089          0.6804E+06
   6359      1     82     57      0.1216          0.6804E+06
   6360      1     82     58      0.1348          0.6804E+06
   6361      1     82     59      0.1470          0.6804E+06
   6362      1     82     60      0.1603          0.6804E+06
   6363      1     82     61      0.1704          0.6804E+06
   6364      1     82     62      0.1810          0.6804E+06
   6365      1     82     63      0.1926          0.6804E+06
   6366      1     82     64      0.2028          0.6804E+06
   6367      1     82     65      0.2148          0.6804E+06
   6368      1     82     66      0.2283          0.6804E+06
   6369      1     82     67      0.2402          0.6804E+06
   6370      1     82     68      0.2534          0.6804E+06
   6371      1     82     69      0.2645          0.6804E+06
   6372      1     82     70      0.2771          0.6804E+06
   6373      1     82     71      0.2900          0.6804E+06
   6374      1     82     72      0.3005          0.6804E+06
   6375      1     82     73      0.3111          0.6804E+06
   6376      1     82     74      0.3200          0.6804E+06
   6377      1     82     75      0.3267          0.6804E+06
   6378      1     82     91      0.3166          0.6804E+06
   6379      1     82     92      0.3193          0.6804E+06
   6380      1     82     93      0.3217          0.6804E+06
   6381      1     82     94      0.3244          0.6804E+06
   6382      1     82     95      0.3270          0.6804E+06
   6383      1     82     96      0.3290          0.6804E+06
   6384      1     82     97      0.3307          0.6804E+06
   6385      1     82     98      0.3315          0.6804E+06
   6386      1     82     99      0.3317          0.6804E+06
   6387      1     82    100      0.3309          0.6804E+06
   6388      1     83      1      0.9840          0.6804E+06
   6389      1     83      2      0.9704          0.6804E+06
   6390      1     83      3      0.9581          0.6804E+06
   6391      1     83      4      0.9471          0.6804E+06
   6392      1     83      5      0.9411          0.6804E+06
   6393      1     83      6      0.9360          0.6804E+06
   6394      1     83      7      0.9273          0.6804E+06
   6395      1     83      8      0.9141          0.6804E+06
   6396      1     83      9      0.8983          0.6804E+06
   6397      1     83     10      0.8753          0.6804E+06
   6398      1     83     11      0.8507          0.6804E+06
   6399      1     83     12      0.8168          0.6804E+06
   6400      1     83     13      0.7746          0.6804E+06
   6401      1     83     14      0.7343          0.6804E+06
   6402      1     83     15      0.6870          0.6804E+06
   6403      1     83     16      0.6451          0.6804E+06
   6404      1     83     17      0.5973          0.6804E+06
   6405      1     83     18      0.5485          0.6804E+06
   6406      1     83     19      0.5057          0.6804E+06
   6407      1     83     20      0.4602          0.6804E+06
   6408      1     83     21      0.4227          0.6804E+06
   6409      1     83     22      0.3923          0.6804E+06
   6410      1     83     23      0.3560          0.6804E+06
   6411      1     83     24      0.3226          0.6804E+06
   6412      1     83     25      0.2831          0.6804E+06
   6413      1     83     26      0.2420          0.6804E+06
   6414      1     83     27      0.2066          0.6804E+06
   6415      1     83     28      0.1686          0.6804E+06
   6416      1     83     29      0.1354          0.6804E+06
   6417      1     83     30      0.1159          0.6804E+06
   6418      1     83     31      0.1014          0.6804E+06
   6419      1     83     32      0.9273E-01      0.6804E+06
   6420      1     83     33      0.8520E-01      0.6804E+06
   6421      1     83     34      0.7963E-01      0.6804E+06
   6422      1     83     35      0.7584E-01      0.6804E+06
   6423      1     83     36      0.7254E-01      0.6804E+06
   6424      1     83     37      0.7060E-01      0.6804E+06
   6425      1     83     38      0.7009E-01      0.6804E+06
   6426      1     83     39      0.7160E-01      0.6804E+06
   6427      1     83     40      0.7453E-01      0.6804E+06
   6428      1     83     41      0.7913E-01      0.6804E+06
   6429      1     83     42      0.8310E-01      0.6804E+06
   6430      1     83     43      0.8644E-01      0.6804E+06
   6431      1     83     44      0.8984E-01      0.6804E+06
   6432      1     83     45      0.9203E-01      0.6804E+06
   6433      1     83     46      0.9308E-01      0.6804E+06
   6434      1     83     47      0.9360E-01      0.6804E+06
   6435      1     83     48      0.9308E-01      0.6804E+06
   6436      1     83     49      0.9166E-01      0.6804E+06
   6437      1     83     50      0.9102E-01      0.6804E+06
   6438      1     83     51      0.9196E-01      0.6804E+06
   6439      1     83     52      0.9631E-01      0.6804E+06
   6440      1     83     53      0.1034          0.6804E+06
   6441      1     83     54      0.1127          0.6804E+06
   6442      1     83     55      0.1222          0.6804E+06
   6443      1     83     56      0.1318          0.6804E+06
   6444      1     83     57      0.1448          0.6804E+06
   6445      1     83     58      0.1583          0.6804E+06
   6446      1     83     59      0.1710          0.6804E+06
   6447      1     83     60      0.1849          0.6804E+06
   6448      1     83     61      0.1956          0.6804E+06
   6449      1     83     62      0.2064          0.6804E+06
   6450      1     83     63      0.2176          0.6804E+06
   6451      1     83     64      0.2264          0.6804E+06
   6452      1     83     65      0.2358          0.6804E+06
   6453      1     83     66      0.2462          0.6804E+06
   6454      1     83     67      0.2563          0.6804E+06
   6455      1     83     68      0.2671          0.6804E+06
   6456      1     83     69      0.2763          0.6804E+06
   6457      1     83     70      0.2870          0.6804E+06
   6458      1     83     71      0.2986          0.6804E+06
   6459      1     83     72      0.3077          0.6804E+06
   6460      1     83     73      0.3169          0.6804E+06
   6461      1     83     74      0.3249          0.6804E+06
   6462      1     83     75      0.3310          0.6804E+06
   6463      1     83     76      0.3361          0.6804E+06
   6464      1     83     77      0.3381          0.6804E+06
   6465      1     83     93      0.3245          0.6804E+06
   6466      1     83     94      0.3272          0.6804E+06
   6467      1     83     95      0.3299          0.6804E+06
   6468      1     83     96      0.3322          0.6804E+06
   6469      1     83     97      0.3344          0.6804E+06
   6470      1     83     98      0.3353          0.6804E+06
   6471      1     83     99      0.3350          0.6804E+06
   6472      1     83    100      0.3336          0.6804E+06
   6473      1     84      1      0.9842          0.6804E+06
   6474      1     84      2      0.9714          0.6804E+06
   6475      1     84      3      0.9601          0.6804E+06
   6476      1     84      4      0.9499          0.6804E+06
   6477      1     84      5      0.9436          0.6804E+06
   6478      1     84      6      0.9385          0.6804E+06
   6479      1     84      7      0.9306          0.6804E+06
   6480      1     84      8      0.9193          0.6804E+06
   6481      1     84      9      0.9060          0.6804E+06
   6482      1     84     10      0.8864          0.6804E+06
   6483      1     84     11      0.8648          0.6804E+06
   6484      1     84     12      0.8339          0.6804E+06
   6485      1     84     13      0.7947          0.6804E+06
   6486      1     84     14      0.7563          0.6804E+06
   6487      1     84     15      0.7101          0.6804E+06
   6488      1     84     16      0.6693          0.6804E+06
   6489      1     84     17      0.6246          0.6804E+06
   6490      1     84     18      0.5839          0.6804E+06
   6491      1     84     19      0.5514          0.6804E+06
   6492      1     84     20      0.5184          0.6804E+06
   6493      1     84     21      0.4889          0.6804E+06
   6494      1     84     22      0.4576          0.6804E+06
   6495      1     84     23      0.4144          0.6804E+06
   6496      1     84     24      0.3732          0.6804E+06
   6497      1     84     25      0.3265          0.6804E+06
   6498      1     84     26      0.2805          0.6804E+06
   6499      1     84     27      0.2423          0.6804E+06
   6500      1     84     28      0.2028          0.6804E+06
   6501      1     84     29      0.1690          0.6804E+06
   6502      1     84     30      0.1462          0.6804E+06
   6503      1     84     31      0.1270          0.6804E+06
   6504      1     84     32      0.1144          0.6804E+06
   6505      1     84     33      0.1032          0.6804E+06
   6506      1     84     34      0.9457E-01      0.6804E+06
   6507      1     84     35      0.8780E-01      0.6804E+06
   6508      1     84     36      0.8105E-01      0.6804E+06
   6509      1     84     37      0.7706E-01      0.6804E+06
   6510      1     84     38      0.7524E-01      0.6804E+06
   6511      1     84     39      0.7590E-01      0.6804E+06
   6512      1     84     40      0.7921E-01      0.6804E+06
   6513      1     84     41      0.8587E-01      0.6804E+06
   6514      1     84     42      0.9323E-01      0.6804E+06
   6515      1     84     43      0.9840E-01      0.6804E+06
   6516      1     84     44      0.1035          0.6804E+06
   6517      1     84     45      0.1076          0.6804E+06
   6518      1     84     46      0.1095          0.6804E+06
   6519      1     84     47      0.1103          0.6804E+06
   6520      1     84     48      0.1097          0.6804E+06
   6521      1     84     49      0.1079          0.6804E+06
   6522      1     84     50      0.1068          0.6804E+06
   6523      1     84     51      0.1084          0.6804E+06
   6524      1     84     52      0.1140          0.6804E+06
   6525      1     84     53      0.1223          0.6804E+06
   6526      1     84     54      0.1333          0.6804E+06
   6527      1     84     55      0.1446          0.6804E+06
   6528      1     84     56      0.1556          0.6804E+06
   6529      1     84     57      0.1696          0.6804E+06
   6530      1     84     58      0.1837          0.6804E+06
   6531      1     84     59      0.1967          0.6804E+06
   6532      1     84     60      0.2114          0.6804E+06
   6533      1     84     61      0.2228          0.6804E+06
   6534      1     84     62      0.2339          0.6804E+06
   6535      1     84     63      0.2447          0.6804E+06
   6536      1     84     64      0.2522          0.6804E+06
   6537      1     84     65      0.2589          0.6804E+06
   6538      1     84     66      0.2654          0.6804E+06
   6539      1     84     67      0.2731          0.6804E+06
   6540      1     84     68      0.2817          0.6804E+06
   6541      1     84     69      0.2889          0.6804E+06
   6542      1     84     70      0.2972          0.6804E+06
   6543      1     84     71      0.3072          0.6804E+06
   6544      1     84     72      0.3147          0.6804E+06
   6545      1     84     73      0.3223          0.6804E+06
   6546      1     84     74      0.3292          0.6804E+06
   6547      1     84     75      0.3346          0.6804E+06
   6548      1     84     76      0.3388          0.6804E+06
   6549      1     84     77      0.3398          0.6804E+06
   6550      1     84     78      0.3385          0.6804E+06
   6551      1     84     79      0.3366          0.6804E+06
   6552      1     84     80      0.3348          0.6804E+06
   6553      1     84     94      0.3300          0.6804E+06
   6554      1     84     95      0.3329          0.6804E+06
   6555      1     84     96      0.3355          0.6804E+06
   6556      1     84     97      0.3383          0.6804E+06
   6557      1     84     98      0.3393          0.6804E+06
   6558      1     84     99      0.3385          0.6804E+06
   6559      1     84    100      0.3364          0.6804E+06
   6560      1     85      1      0.9851          0.6804E+06
   6561      1     85      2      0.9739          0.6804E+06
   6562      1     85      3      0.9643          0.6804E+06
   6563      1     85      4      0.9552          0.6804E+06
   6564      1     85      5      0.9484          0.6804E+06
   6565      1     85      6      0.9428          0.6804E+06
   6566      1     85      7      0.9352          0.6804E+06
   6567      1     85      8      0.9253          0.6804E+06
   6568      1     85      9      0.9141          0.6804E+06
   6569      1     85     10      0.8975          0.6804E+06
   6570      1     85     11      0.8790          0.6804E+06
   6571      1     85     12      0.8511          0.6804E+06
   6572      1     85     13      0.8140          0.6804E+06
   6573      1     85     14      0.7764          0.6804E+06
   6574      1     85     15      0.7303          0.6804E+06
   6575      1     85     16      0.6897          0.6804E+06
   6576      1     85     17      0.6478          0.6804E+06
   6577      1     85     18      0.6139          0.6804E+06
   6578      1     85     19      0.5904          0.6804E+06
   6579      1     85     20      0.5688          0.6804E+06
   6580      1     85     21      0.5502          0.6804E+06
   6581      1     85     22      0.5192          0.6804E+06
   6582      1     85     23      0.4683          0.6804E+06
   6583      1     85     24      0.4203          0.6804E+06
   6584      1     85     25      0.3680          0.6804E+06
   6585      1     85     26      0.3183          0.6804E+06
   6586      1     85     27      0.2781          0.6804E+06
   6587      1     85     28      0.2371          0.6804E+06
   6588      1     85     29      0.2016          0.6804E+06
   6589      1     85     30      0.1764          0.6804E+06
   6590      1     85     31      0.1540          0.6804E+06
   6591      1     85     32      0.1384          0.6804E+06
   6592      1     85     33      0.1238          0.6804E+06
   6593      1     85     34      0.1125          0.6804E+06
   6594      1     85     35      0.1035          0.6804E+06
   6595      1     85     36      0.9425E-01      0.6804E+06
   6596      1     85     37      0.8752E-01      0.6804E+06
   6597      1     85     38      0.8307E-01      0.6804E+06
   6598      1     85     39      0.8269E-01      0.6804E+06
   6599      1     85     40      0.8671E-01      0.6804E+06
   6600      1     85     41      0.9372E-01      0.6804E+06
   6601      1     85     42      0.1019          0.6804E+06
   6602      1     85     43      0.1097          0.6804E+06
   6603      1     85     44      0.1181          0.6804E+06
   6604      1     85     45      0.1238          0.6804E+06
   6605      1     85     46      0.1266          0.6804E+06
   6606      1     85     47      0.1277          0.6804E+06
   6607      1     85     48      0.1268          0.6804E+06
   6608      1     85     49      0.1242          0.6804E+06
   6609      1     85     50      0.1220          0.6804E+06
   6610      1     85     51      0.1240          0.6804E+06
   6611      1     85     52      0.1306          0.6804E+06
   6612      1     85     53      0.1402          0.6804E+06
   6613      1     85     54      0.1527          0.6804E+06
   6614      1     85     55      0.1658          0.6804E+06
   6615      1     85     56      0.1781          0.6804E+06
   6616      1     85     57      0.1930          0.6804E+06
   6617      1     85     58      0.2078          0.6804E+06
   6618      1     85     59      0.2212          0.6804E+06
   6619      1     85     60      0.2367          0.6804E+06
   6620      1     85     61      0.2491          0.6804E+06
   6621      1     85     62      0.2610          0.6804E+06
   6622      1     85     63      0.2708          0.6804E+06
   6623      1     85     64      0.2763          0.6804E+06
   6624      1     85     65      0.2798          0.6804E+06
   6625      1     85     66      0.2834          0.6804E+06
   6626      1     85     67      0.2877          0.6804E+06
   6627      1     85     68      0.2941          0.6804E+06
   6628      1     85     69      0.3002          0.6804E+06
   6629      1     85     70      0.3069          0.6804E+06
   6630      1     85     71      0.3145          0.6804E+06
   6631      1     85     72      0.3201          0.6804E+06
   6632      1     85     73      0.3260          0.6804E+06
   6633      1     85     74      0.3313          0.6804E+06
   6634      1     85     75      0.3356          0.6804E+06
   6635      1     85     76      0.3386          0.6804E+06
   6636      1     85     77      0.3392          0.6804E+06
   6637      1     85     78      0.3377          0.6804E+06
   6638      1     85     79      0.3360          0.6804E+06
   6639      1     85     80      0.3344          0.6804E+06
   6640      1     85     81      0.3324          0.6804E+06
   6641      1     85     82      0.3301          0.6804E+06
   6642      1     85     95      0.3351          0.6804E+06
   6643      1     85     96      0.3376          0.6804E+06
   6644      1     85     97      0.3401          0.6804E+06
   6645      1     85     98      0.3411          0.6804E+06
   6646      1     85     99      0.3404          0.6804E+06
   6647      1     85    100      0.3384          0.6804E+06
   6648      1     86      1      0.9855          0.6804E+06
   6649      1     86      2      0.9757          0.6804E+06
   6650      1     86      3      0.9674          0.6804E+06
   6651      1     86      4      0.9592          0.6804E+06
   6652      1     86      5      0.9524          0.6804E+06
   6653      1     86      6      0.9466          0.6804E+06
   6654      1     86      7      0.9393          0.6804E+06
   6655      1     86      8      0.9304          0.6804E+06
   6656      1     86      9      0.9207          0.6804E+06
   6657      1     86     10      0.9070          0.6804E+06
   6658      1     86     11      0.8916          0.6804E+06
   6659      1     86     12      0.8672          0.6804E+06
   6660      1     86     13      0.8310          0.6804E+06
   6661      1     86     14      0.7931          0.6804E+06
   6662      1     86     15      0.7462          0.6804E+06
   6663      1     86     16      0.7049          0.6804E+06
   6664      1     86     17      0.6641          0.6804E+06
   6665      1     86     18      0.6349          0.6804E+06
   6666      1     86     19      0.6180          0.6804E+06
   6667      1     86     20      0.6034          0.6804E+06
   6668      1     86     21      0.5916          0.6804E+06
   6669      1     86     22      0.5612          0.6804E+06
   6670      1     86     23      0.5063          0.6804E+06
   6671      1     86     24      0.4556          0.6804E+06
   6672      1     86     25      0.4009          0.6804E+06
   6673      1     86     26      0.3494          0.6804E+06
   6674      1     86     27      0.3078          0.6804E+06
   6675      1     86     28      0.2656          0.6804E+06
   6676      1     86     29      0.2287          0.6804E+06
   6677      1     86     30      0.2021          0.6804E+06
   6678      1     86     31      0.1776          0.6804E+06
   6679      1     86     32      0.1602          0.6804E+06
   6680      1     86     33      0.1437          0.6804E+06
   6681      1     86     34      0.1306          0.6804E+06
   6682      1     86     35      0.1205          0.6804E+06
   6683      1     86     36      0.1101          0.6804E+06
   6684      1     86     37      0.1013          0.6804E+06
   6685      1     86     38      0.9466E-01      0.6804E+06
   6686      1     86     39      0.9319E-01      0.6804E+06
   6687      1     86     40      0.9788E-01      0.6804E+06
   6688      1     86     41      0.1051          0.6804E+06
   6689      1     86     42      0.1140          0.6804E+06
   6690      1     86     43      0.1231          0.6804E+06
   6691      1     86     44      0.1331          0.6804E+06
   6692      1     86     45      0.1390          0.6804E+06
   6693      1     86     46      0.1419          0.6804E+06
   6694      1     86     47      0.1431          0.6804E+06
   6695      1     86     48      0.1420          0.6804E+06
   6696      1     86     49      0.1384          0.6804E+06
   6697      1     86     50      0.1353          0.6804E+06
   6698      1     86     51      0.1373          0.6804E+06
   6699      1     86     52      0.1452          0.6804E+06
   6700      1     86     53      0.1563          0.6804E+06
   6701      1     86     54      0.1700          0.6804E+06
   6702      1     86     55      0.1844          0.6804E+06
   6703      1     86     56      0.1973          0.6804E+06
   6704      1     86     57      0.2125          0.6804E+06
   6705      1     86     58      0.2274          0.6804E+06
   6706      1     86     59      0.2409          0.6804E+06
   6707      1     86     60      0.2565          0.6804E+06
   6708      1     86     61      0.2695          0.6804E+06
   6709      1     86     62      0.2835          0.6804E+06
   6710      1     86     63      0.2917          0.6804E+06
   6711      1     86     64      0.2942          0.6804E+06
   6712      1     86     65      0.2942          0.6804E+06
   6713      1     86     66      0.2955          0.6804E+06
   6714      1     86     67      0.2987          0.6804E+06
   6715      1     86     68      0.3035          0.6804E+06
   6716      1     86     69      0.3083          0.6804E+06
   6717      1     86     70      0.3140          0.6804E+06
   6718      1     86     71      0.3193          0.6804E+06
   6719      1     86     72      0.3234          0.6804E+06
   6720      1     86     73      0.3277          0.6804E+06
   6721      1     86     74      0.3315          0.6804E+06
   6722      1     86     75      0.3342          0.6804E+06
   6723      1     86     76      0.3360          0.6804E+06
   6724      1     86     77      0.3364          0.6804E+06
   6725      1     86     78      0.3358          0.6804E+06
   6726      1     86     79      0.3346          0.6804E+06
   6727      1     86     80      0.3333          0.6804E+06
   6728      1     86     81      0.3318          0.6804E+06
   6729      1     86     82      0.3300          0.6804E+06
   6730      1     86     83      0.3282          0.6804E+06
   6731      1     86     84      0.3265          0.6804E+06
   6732      1     87      1      0.9846          0.6804E+06
   6733      1     87      2      0.9765          0.6804E+06
   6734      1     87      3      0.9696          0.6804E+06
   6735      1     87      4      0.9623          0.6804E+06
   6736      1     87      5      0.9557          0.6804E+06
   6737      1     87      6      0.9500          0.6804E+06
   6738      1     87      7      0.9431          0.6804E+06
   6739      1     87      8      0.9350          0.6804E+06
   6740      1     87      9      0.9266          0.6804E+06
   6741      1     87     10      0.9151          0.6804E+06
   6742      1     87     11      0.9029          0.6804E+06
   6743      1     87     12      0.8834          0.6804E+06
   6744      1     87     13      0.8484          0.6804E+06
   6745      1     87     14      0.8102          0.6804E+06
   6746      1     87     15      0.7640          0.6804E+06
   6747      1     87     16      0.7228          0.6804E+06
   6748      1     87     17      0.6824          0.6804E+06
   6749      1     87     18      0.6561          0.6804E+06
   6750      1     87     19      0.6434          0.6804E+06
   6751      1     87     20      0.6288          0.6804E+06
   6752      1     87     21      0.6099          0.6804E+06
   6753      1     87     22      0.5807          0.6804E+06
   6754      1     87     23      0.5333          0.6804E+06
   6755      1     87     24      0.4860          0.6804E+06
   6756      1     87     25      0.4325          0.6804E+06
   6757      1     87     26      0.3809          0.6804E+06
   6758      1     87     27      0.3388          0.6804E+06
   6759      1     87     28      0.2957          0.6804E+06
   6760      1     87     29      0.2578          0.6804E+06
   6761      1     87     30      0.2300          0.6804E+06
   6762      1     87     31      0.2041          0.6804E+06
   6763      1     87     32      0.1854          0.6804E+06
   6764      1     87     33      0.1678          0.6804E+06
   6765      1     87     34      0.1536          0.6804E+06
   6766      1     87     35      0.1427          0.6804E+06
   6767      1     87     36      0.1319          0.6804E+06
   6768      1     87     37      0.1232          0.6804E+06
   6769      1     87     38      0.1179          0.6804E+06
   6770      1     87     39      0.1161          0.6804E+06
   6771      1     87     40      0.1185          0.6804E+06
   6772      1     87     41      0.1230          0.6804E+06
   6773      1     87     42      0.1327          0.6804E+06
   6774      1     87     43      0.1428          0.6804E+06
   6775      1     87     44      0.1536          0.6804E+06
   6776      1     87     45      0.1606          0.6804E+06
   6777      1     87     46      0.1636          0.6804E+06
   6778      1     87     47      0.1645          0.6804E+06
   6779      1     87     48      0.1623          0.6804E+06
   6780      1     87     49      0.1561          0.6804E+06
   6781      1     87     50      0.1515          0.6804E+06
   6782      1     87     51      0.1535          0.6804E+06
   6783      1     87     52      0.1623          0.6804E+06
   6784      1     87     53      0.1751          0.6804E+06
   6785      1     87     54      0.1906          0.6804E+06
   6786      1     87     55      0.2061          0.6804E+06
   6787      1     87     56      0.2192          0.6804E+06
   6788      1     87     57      0.2333          0.6804E+06
   6789      1     87     58      0.2476          0.6804E+06
   6790      1     87     59      0.2603          0.6804E+06
   6791      1     87     60      0.2750          0.6804E+06
   6792      1     87     61      0.2880          0.6804E+06
   6793      1     87     62      0.3038          0.6804E+06
   6794      1     87     63      0.3098          0.6804E+06
   6795      1     87     64      0.3096          0.6804E+06
   6796      1     87     65      0.3069          0.6804E+06
   6797      1     87     66      0.3062          0.6804E+06
   6798      1     87     67      0.3083          0.6804E+06
   6799      1     87     68      0.3114          0.6804E+06
   6800      1     87     69      0.3149          0.6804E+06
   6801      1     87     70      0.3202          0.6804E+06
   6802      1     87     71      0.3235          0.6804E+06
   6803      1     87     72      0.3261          0.6804E+06
   6804      1     87     73      0.3287          0.6804E+06
   6805      1     87     74      0.3304          0.6804E+06
   6806      1     87     75      0.3316          0.6804E+06
   6807      1     87     76      0.3324          0.6804E+06
   6808      1     87     77      0.3326          0.6804E+06
   6809      1     87     78      0.3327          0.6804E+06
   6810      1     87     79      0.3323          0.6804E+06
   6811      1     87     80      0.3316          0.6804E+06
   6812      1     87     81      0.3306          0.6804E+06
   6813      1     87     82      0.3294          0.6804E+06
   6814      1     87     83      0.3280          0.6804E+06
   6815      1     87     84      0.3268          0.6804E+06
   6816      1     87     85      0.3259          0.6804E+06
   6817      1     87     86      0.3252          0.6804E+06
   6818      1     88      1      0.9821          0.6804E+06
   6819      1     88      2      0.9755          0.6804E+06
   6820      1     88      3      0.9698          0.6804E+06
   6821      1     88      4      0.9636          0.6804E+06
   6822      1     88      5      0.9574          0.6804E+06
   6823      1     88      6      0.9519          0.6804E+06
   6824      1     88      7      0.9453          0.6804E+06
   6825      1     88      8      0.9377          0.6804E+06
   6826      1     88      9      0.9298          0.6804E+06
   6827      1     88     10      0.9193          0.6804E+06
   6828      1     88     11      0.9080          0.6804E+06
   6829      1     88     12      0.8898          0.6804E+06
   6830      1     88     13      0.8582          0.6804E+06
   6831      1     88     14      0.8239          0.6804E+06
   6832      1     88     15      0.7824          0.6804E+06
   6833      1     88     16      0.7458          0.6804E+06
   6834      1     88     17      0.7097          0.6804E+06
   6835      1     88     18      0.6842          0.6804E+06
   6836      1     88     19      0.6688          0.6804E+06
   6837      1     88     20      0.6502          0.6804E+06
   6838      1     88     21      0.6260          0.6804E+06
   6839      1     88     22      0.5967          0.6804E+06
   6840      1     88     23      0.5534          0.6804E+06
   6841      1     88     24      0.5099          0.6804E+06
   6842      1     88     25      0.4586          0.6804E+06
   6843      1     88     26      0.4080          0.6804E+06
   6844      1     88     27      0.3659          0.6804E+06
   6845      1     88     28      0.3223          0.6804E+06
   6846      1     88     29      0.2838          0.6804E+06
   6847      1     88     30      0.2554          0.6804E+06
   6848      1     88     31      0.2291          0.6804E+06
   6849      1     88     32      0.2103          0.6804E+06
   6850      1     88     33      0.1926          0.6804E+06
   6851      1     88     34      0.1782          0.6804E+06
   6852      1     88     35      0.1674          0.6804E+06
   6853      1     88     36      0.1573          0.6804E+06
   6854      1     88     37      0.1509          0.6804E+06
   6855      1     88     38      0.1495          0.6804E+06
   6856      1     88     39      0.1487          0.6804E+06
   6857      1     88     40      0.1479          0.6804E+06
   6858      1     88     41      0.1499          0.6804E+06
   6859      1     88     42      0.1588          0.6804E+06
   6860      1     88     43      0.1684          0.6804E+06
   6861      1     88     44      0.1789          0.6804E+06
   6862      1     88     45      0.1866          0.6804E+06
   6863      1     88     46      0.1898          0.6804E+06
   6864      1     88     47      0.1899          0.6804E+06
   6865      1     88     48      0.1867          0.6804E+06
   6866      1     88     49      0.1810          0.6804E+06
   6867      1     88     50      0.1754          0.6804E+06
   6868      1     88     51      0.1767          0.6804E+06
   6869      1     88     52      0.1854          0.6804E+06
   6870      1     88     53      0.1985          0.6804E+06
   6871      1     88     54      0.2139          0.6804E+06
   6872      1     88     55      0.2281          0.6804E+06
   6873      1     88     56      0.2402          0.6804E+06
   6874      1     88     57      0.2541          0.6804E+06
   6875      1     88     58      0.2660          0.6804E+06
   6876      1     88     59      0.2763          0.6804E+06
   6877      1     88     60      0.2887          0.6804E+06
   6878      1     88     61      0.2998          0.6804E+06
   6879      1     88     62      0.3118          0.6804E+06
   6880      1     88     63      0.3173          0.6804E+06
   6881      1     88     64      0.3178          0.6804E+06
   6882      1     88     65      0.3156          0.6804E+06
   6883      1     88     66      0.3146          0.6804E+06
   6884      1     88     67      0.3147          0.6804E+06
   6885      1     88     68      0.3162          0.6804E+06
   6886      1     88     69      0.3191          0.6804E+06
   6887      1     88     70      0.3238          0.6804E+06
   6888      1     88     71      0.3264          0.6804E+06
   6889      1     88     72      0.3279          0.6804E+06
   6890      1     88     73      0.3289          0.6804E+06
   6891      1     88     74      0.3288          0.6804E+06
   6892      1     88     75      0.3285          0.6804E+06
   6893      1     88     76      0.3284          0.6804E+06
   6894      1     88     77      0.3286          0.6804E+06
   6895      1     88     78      0.3293          0.6804E+06
   6896      1     88     79      0.3297          0.6804E+06
   6897      1     88     80      0.3296          0.6804E+06
   6898      1     88     81      0.3292          0.6804E+06
   6899      1     88     82      0.3285          0.6804E+06
   6900      1     88     83      0.3275          0.6804E+06
   6901      1     88     84      0.3266          0.6804E+06
   6902      1     88     85      0.3260          0.6804E+06
   6903      1     88     86      0.3256          0.6804E+06
   6904      1     88     87      0.3256          0.6804E+06
   6905      1     89      1      0.9788          0.6804E+06
   6906      1     89      2      0.9734          0.6804E+06
   6907      1     89      3      0.9686          0.6804E+06
   6908      1     89      4      0.9631          0.6804E+06
   6909      1     89      5      0.9575          0.6804E+06
   6910      1     89      6      0.9523          0.6804E+06
   6911      1     89      7      0.9457          0.6804E+06
   6912      1     89      8      0.9381          0.6804E+06
   6913      1     89      9      0.9303          0.6804E+06
   6914      1     89     10      0.9195          0.6804E+06
   6915      1     89     11      0.9077          0.6804E+06
   6916      1     89     12      0.8887          0.6804E+06
   6917      1     89     13      0.8618          0.6804E+06
   6918      1     89     14      0.8333          0.6804E+06
   6919      1     89     15      0.7980          0.6804E+06
   6920      1     89     16      0.7671          0.6804E+06
   6921      1     89     17      0.7356          0.6804E+06
   6922      1     89     18      0.7101          0.6804E+06
   6923      1     89     19      0.6913          0.6804E+06
   6924      1     89     20      0.6689          0.6804E+06
   6925      1     89     21      0.6418          0.6804E+06
   6926      1     89     22      0.6119          0.6804E+06
   6927      1     89     23      0.5701          0.6804E+06
   6928      1     89     24      0.5286          0.6804E+06
   6929      1     89     25      0.4788          0.6804E+06
   6930      1     89     26      0.4288          0.6804E+06
   6931      1     89     27      0.3868          0.6804E+06
   6932      1     89     28      0.3426          0.6804E+06
   6933      1     89     29      0.3037          0.6804E+06
   6934      1     89     30      0.2753          0.6804E+06
   6935      1     89     31      0.2495          0.6804E+06
   6936      1     89     32      0.2314          0.6804E+06
   6937      1     89     33      0.2139          0.6804E+06
   6938      1     89     34      0.2005          0.6804E+06
   6939      1     89     35      0.1911          0.6804E+06
   6940      1     89     36      0.1828          0.6804E+06
   6941      1     89     37      0.1782          0.6804E+06
   6942      1     89     38      0.1789          0.6804E+06
   6943      1     89     39      0.1800          0.6804E+06
   6944      1     89     40      0.1795          0.6804E+06
   6945      1     89     41      0.1821          0.6804E+06
   6946      1     89     42      0.1886          0.6804E+06
   6947      1     89     43      0.1959          0.6804E+06
   6948      1     89     44      0.2050          0.6804E+06
   6949      1     89     45      0.2122          0.6804E+06
   6950      1     89     46      0.2153          0.6804E+06
   6951      1     89     47      0.2153          0.6804E+06
   6952      1     89     48      0.2123          0.6804E+06
   6953      1     89     49      0.2086          0.6804E+06
   6954      1     89     50      0.2041          0.6804E+06
   6955      1     89     51      0.2053          0.6804E+06
   6956      1     89     52      0.2126          0.6804E+06
   6957      1     89     53      0.2234          0.6804E+06
   6958      1     89     54      0.2364          0.6804E+06
   6959      1     89     55      0.2481          0.6804E+06
   6960      1     89     56      0.2582          0.6804E+06
   6961      1     89     57      0.2700          0.6804E+06
   6962      1     89     58      0.2796          0.6804E+06
   6963      1     89     59      0.2877          0.6804E+06
   6964      1     89     60      0.2975          0.6804E+06
   6965      1     89     61      0.3061          0.6804E+06
   6966      1     89     62      0.3147          0.6804E+06
   6967      1     89     63      0.3195          0.6804E+06
   6968      1     89     64      0.3208          0.6804E+06
   6969      1     89     65      0.3200          0.6804E+06
   6970      1     89     66      0.3195          0.6804E+06
   6971      1     89     67      0.3194          0.6804E+06
   6972      1     89     68      0.3205          0.6804E+06
   6973      1     89     69      0.3225          0.6804E+06
   6974      1     89     70      0.3248          0.6804E+06
   6975      1     89     71      0.3277          0.6804E+06
   6976      1     89     72      0.3289          0.6804E+06
   6977      1     89     73      0.3285          0.6804E+06
   6978      1     89     74      0.3274          0.6804E+06
   6979      1     89     75      0.3258          0.6804E+06
   6980      1     89     76      0.3249          0.6804E+06
   6981      1     89     77      0.3253          0.6804E+06
   6982      1     89     78      0.3267          0.6804E+06
   6983      1     89     79      0.3277          0.6804E+06
   6984      1     89     80      0.3281          0.6804E+06
   6985      1     89     81      0.3280          0.6804E+06
   6986      1     89     82      0.3276          0.6804E+06
   6987      1     89     83      0.3269          0.6804E+06
   6988      1     89     84      0.3262          0.6804E+06
   6989      1     89     85      0.3258          0.6804E+06
   6990      1     89     86      0.3255          0.6804E+06
   6991      1     89     87      0.3256          0.6804E+06
   6992      1     89     88      0.3261          0.6804E+06
   6993      1     89     89      0.3270          0.6804E+06
   6994      1     90      1      0.9739          0.6804E+06
   6995      1     90      2      0.9699          0.6804E+06
   6996      1     90      3      0.9659          0.6804E+06
   6997      1     90      4      0.9611          0.6804E+06
   6998      1     90      5      0.9560          0.6804E+06
   6999      1     90      6      0.9509          0.6804E+06
   7000      1     90      7      0.9442          0.6804E+06
   7001      1     90      8      0.9366          0.6804E+06
   7002      1     90      9      0.9287          0.6804E+06
   7003      1     90     10      0.9177          0.6804E+06
   7004      1     90     11      0.9057          0.6804E+06
   7005      1     90     12      0.8879          0.6804E+06
   7006      1     90     13      0.8653          0.6804E+06
   7007      1     90     14      0.8423          0.6804E+06
   7008      1     90     15      0.8140          0.6804E+06
   7009      1     90     16      0.7890          0.6804E+06
   7010      1     90     17      0.7619          0.6804E+06
   7011      1     90     18      0.7371          0.6804E+06
   7012      1     90     19      0.7163          0.6804E+06
   7013      1     90     20      0.6912          0.6804E+06
   7014      1     90     21      0.6620          0.6804E+06
   7015      1     90     22      0.6315          0.6804E+06
   7016      1     90     23      0.5898          0.6804E+06
   7017      1     90     24      0.5492          0.6804E+06
   7018      1     90     25      0.5003          0.6804E+06
   7019      1     90     26      0.4506          0.6804E+06
   7020      1     90     27      0.4083          0.6804E+06
   7021      1     90     28      0.3635          0.6804E+06
   7022      1     90     29      0.3235          0.6804E+06
   7023      1     90     30      0.2953          0.6804E+06
   7024      1     90     31      0.2710          0.6804E+06
   7025      1     90     32      0.2540          0.6804E+06
   7026      1     90     33      0.2382          0.6804E+06
   7027      1     90     34      0.2267          0.6804E+06
   7028      1     90     35      0.2191          0.6804E+06
   7029      1     90     36      0.2127          0.6804E+06
   7030      1     90     37      0.2097          0.6804E+06
   7031      1     90     38      0.2106          0.6804E+06
   7032      1     90     39      0.2137          0.6804E+06
   7033      1     90     40      0.2179          0.6804E+06
   7034      1     90     41      0.2216          0.6804E+06
   7035      1     90     42      0.2263          0.6804E+06
   7036      1     90     43      0.2315          0.6804E+06
   7037      1     90     44      0.2384          0.6804E+06
   7038      1     90     45      0.2435          0.6804E+06
   7039      1     90     46      0.2461          0.6804E+06
   7040      1     90     47      0.2474          0.6804E+06
   7041      1     90     48      0.2468          0.6804E+06
   7042      1     90     49      0.2453          0.6804E+06
   7043      1     90     50      0.2441          0.6804E+06
   7044      1     90     51      0.2455          0.6804E+06
   7045      1     90     52      0.2496          0.6804E+06
   7046      1     90     53      0.2556          0.6804E+06
   7047      1     90     54      0.2638          0.6804E+06
   7048      1     90     55      0.2718          0.6804E+06
   7049      1     90     56      0.2789          0.6804E+06
   7050      1     90     57      0.2874          0.6804E+06
   7051      1     90     58      0.2943          0.6804E+06
   7052      1     90     59      0.2996          0.6804E+06
   7053      1     90     60      0.3058          0.6804E+06
   7054      1     90     61      0.3115          0.6804E+06
   7055      1     90     62      0.3165          0.6804E+06
   7056      1     90     63      0.3203          0.6804E+06
   7057      1     90     64      0.3223          0.6804E+06
   7058      1     90     65      0.3230          0.6804E+06
   7059      1     90     66      0.3234          0.6804E+06
   7060      1     90     67      0.3240          0.6804E+06
   7061      1     90     68      0.3250          0.6804E+06
   7062      1     90     69      0.3260          0.6804E+06
   7063      1     90     70      0.3269          0.6804E+06
   7064      1     90     71      0.3282          0.6804E+06
   7065      1     90     72      0.3284          0.6804E+06
   7066      1     90     73      0.3275          0.6804E+06
   7067      1     90     74      0.3264          0.6804E+06
   7068      1     90     75      0.3236          0.6804E+06
   7069      1     90     76      0.3221          0.6804E+06
   7070      1     90     77      0.3227          0.6804E+06
   7071      1     90     78      0.3248          0.6804E+06
   7072      1     90     79      0.3262          0.6804E+06
   7073      1     90     80      0.3268          0.6804E+06
   7074      1     90     81      0.3270          0.6804E+06
   7075      1     90     82      0.3267          0.6804E+06
   7076      1     90     83      0.3262          0.6804E+06
   7077      1     90     84      0.3256          0.6804E+06
   7078      1     90     85      0.3252          0.6804E+06
   7079      1     90     86      0.3250          0.6804E+06
   7080      1     90     87      0.3252          0.6804E+06
   7081      1     90     88      0.3258          0.6804E+06
   7082      1     90     89      0.3269          0.6804E+06
   7083      1     90     90      0.3285          0.6804E+06
   7084      1     91      1      0.9689          0.6804E+06
   7085      1     91      2      0.9659          0.6804E+06
   7086      1     91      3      0.9626          0.6804E+06
   7087      1     91      4      0.9584          0.6804E+06
   7088      1     91      5      0.9534          0.6804E+06
   7089      1     91      6      0.9484          0.6804E+06
   7090      1     91      7      0.9417          0.6804E+06
   7091      1     91      8      0.9340          0.6804E+06
   7092      1     91      9      0.9260          0.6804E+06
   7093      1     91     10      0.9152          0.6804E+06
   7094      1     91     11      0.9036          0.6804E+06
   7095      1     91     12      0.8874          0.6804E+06
   7096      1     91     13      0.8679          0.6804E+06
   7097      1     91     14      0.8487          0.6804E+06
   7098      1     91     15      0.8256          0.6804E+06
   7099      1     91     16      0.8052          0.6804E+06
   7100      1     91     17      0.7816          0.6804E+06
   7101      1     91     18      0.7580          0.6804E+06
   7102      1     91     19      0.7369          0.6804E+06
   7103      1     91     20      0.7109          0.6804E+06
   7104      1     91     21      0.6811          0.6804E+06
   7105      1     91     22      0.6502          0.6804E+06
   7106      1     91     23      0.6081          0.6804E+06
   7107      1     91     24      0.5674          0.6804E+06
   7108      1     91     25      0.5184          0.6804E+06
   7109      1     91     26      0.4685          0.6804E+06
   7110      1     91     27      0.4259          0.6804E+06
   7111      1     91     28      0.3806          0.6804E+06
   7112      1     91     29      0.3400          0.6804E+06
   7113      1     91     30      0.3121          0.6804E+06
   7114      1     91     31      0.2892          0.6804E+06
   7115      1     91     32      0.2736          0.6804E+06
   7116      1     91     33      0.2599          0.6804E+06
   7117      1     91     34      0.2504          0.6804E+06
   7118      1     91     35      0.2444          0.6804E+06
   7119      1     91     36      0.2399          0.6804E+06
   7120      1     91     37      0.2383          0.6804E+06
   7121      1     91     38      0.2396          0.6804E+06
   7122      1     91     39      0.2443          0.6804E+06
   7123      1     91     40      0.2520          0.6804E+06
   7124      1     91     41      0.2567          0.6804E+06
   7125      1     91     42      0.2604          0.6804E+06
   7126      1     91     43      0.2640          0.6804E+06
   7127      1     91     44      0.2685          0.6804E+06
   7128      1     91     45      0.2719          0.6804E+06
   7129      1     91     46      0.2739          0.6804E+06
   7130      1     91     47      0.2766          0.6804E+06
   7131      1     91     48      0.2786          0.6804E+06
   7132      1     91     49      0.2793          0.6804E+06
   7133      1     91     50      0.2799          0.6804E+06
   7134      1     91     51      0.2810          0.6804E+06
   7135      1     91     52      0.2824          0.6804E+06
   7136      1     91     53      0.2847          0.6804E+06
   7137      1     91     54      0.2888          0.6804E+06
   7138      1     91     55      0.2931          0.6804E+06
   7139      1     91     56      0.2974          0.6804E+06
   7140      1     91     57      0.3030          0.6804E+06
   7141      1     91     58      0.3070          0.6804E+06
   7142      1     91     59      0.3095          0.6804E+06
   7143      1     91     60      0.3125          0.6804E+06
   7144      1     91     61      0.3158          0.6804E+06
   7145      1     91     62      0.3181          0.6804E+06
   7146      1     91     63      0.3209          0.6804E+06
   7147      1     91     64      0.3233          0.6804E+06
   7148      1     91     65      0.3249          0.6804E+06
   7149      1     91     66      0.3261          0.6804E+06
   7150      1     91     67      0.3273          0.6804E+06
   7151      1     91     68      0.3282          0.6804E+06
   7152      1     91     69      0.3286          0.6804E+06
   7153      1     91     70      0.3291          0.6804E+06
   7154      1     91     71      0.3293          0.6804E+06
   7155      1     91     72      0.3290          0.6804E+06
   7156      1     91     73      0.3280          0.6804E+06
   7157      1     91     74      0.3266          0.6804E+06
   7158      1     91     75      0.3243          0.6804E+06
   7159      1     91     76      0.3230          0.6804E+06
   7160      1     91     77      0.3235          0.6804E+06
   7161      1     91     78      0.3249          0.6804E+06
   7162      1     91     79      0.3259          0.6804E+06
   7163      1     91     80      0.3264          0.6804E+06
   7164      1     91     81      0.3265          0.6804E+06
   7165      1     91     82      0.3261          0.6804E+06
   7166      1     91     83      0.3256          0.6804E+06
   7167      1     91     84      0.3249          0.6804E+06
   7168      1     91     85      0.3245          0.6804E+06
   7169      1     91     86      0.3243          0.6804E+06
   7170      1     91     87      0.3246          0.6804E+06
   7171      1     91     88      0.3253          0.6804E+06
   7172      1     91     89      0.3266          0.6804E+06
   7173      1     91     90      0.3282          0.6804E+06
   7174      1     91     91      0.3299          0.6804E+06
   7175      1     91     92      0.3321          0.6804E+06
   7176      1     92      1      0.9627          0.6804E+06
   7177      1     92      2      0.9605          0.6804E+06
   7178      1     92      3      0.9579          0.6804E+06
   7179      1     92      4      0.9542          0.6804E+06
   7180      1     92      5      0.9495          0.6804E+06
   7181      1     92      6      0.9444          0.6804E+06
   7182      1     92      7      0.9378          0.6804E+06
   7183      1     92      8      0.9299          0.6804E+06
   7184      1     92      9      0.9220          0.6804E+06
   7185      1     92     10      0.9115          0.6804E+06
   7186      1     92     11      0.9007          0.6804E+06
   7187      1     92     12      0.8862          0.6804E+06
   7188      1     92     13      0.8697          0.6804E+06
   7189      1     92     14      0.8541          0.6804E+06
   7190      1     92     15      0.8356          0.6804E+06
   7191      1     92     16      0.8195          0.6804E+06
   7192      1     92     17      0.7996          0.6804E+06
   7193      1     92     18      0.7781          0.6804E+06
   7194      1     92     19      0.7577          0.6804E+06
   7195      1     92     20      0.7324          0.6804E+06
   7196      1     92     21      0.7030          0.6804E+06
   7197      1     92     22      0.6722          0.6804E+06
   7198      1     92     23      0.6297          0.6804E+06
   7199      1     92     24      0.5885          0.6804E+06
   7200      1     92     25      0.5389          0.6804E+06
   7201      1     92     26      0.4881          0.6804E+06
   7202      1     92     27      0.4449          0.6804E+06
   7203      1     92     28      0.3993          0.6804E+06
   7204      1     92     29      0.3600          0.6804E+06
   7205      1     92     30      0.3327          0.6804E+06
   7206      1     92     31      0.3104          0.6804E+06
   7207      1     92     32      0.2964          0.6804E+06
   7208      1     92     33      0.2851          0.6804E+06
   7209      1     92     34      0.2779          0.6804E+06
   7210      1     92     35      0.2738          0.6804E+06
   7211      1     92     36      0.2714          0.6804E+06
   7212      1     92     37      0.2714          0.6804E+06
   7213      1     92     38      0.2739          0.6804E+06
   7214      1     92     39      0.2796          0.6804E+06
   7215      1     92     40      0.2885          0.6804E+06
   7216      1     92     41      0.2952          0.6804E+06
   7217      1     92     42      0.2989          0.6804E+06
   7218      1     92     43      0.3008          0.6804E+06
   7219      1     92     44      0.3028          0.6804E+06
   7220      1     92     45      0.3046          0.6804E+06
   7221      1     92     46      0.3067          0.6804E+06
   7222      1     92     47      0.3110          0.6804E+06
   7223      1     92     48      0.3152          0.6804E+06
   7224      1     92     49      0.3181          0.6804E+06
   7225      1     92     50      0.3204          0.6804E+06
   7226      1     92     51      0.3210          0.6804E+06
   7227      1     92     52      0.3190          0.6804E+06
   7228      1     92     53      0.3173          0.6804E+06
   7229      1     92     54      0.3168          0.6804E+06
   7230      1     92     55      0.3168          0.6804E+06
   7231      1     92     56      0.3176          0.6804E+06
   7232      1     92     57      0.3197          0.6804E+06
   7233      1     92     58      0.3200          0.6804E+06
   7234      1     92     59      0.3200          0.6804E+06
   7235      1     92     60      0.3205          0.6804E+06
   7236      1     92     61      0.3210          0.6804E+06
   7237      1     92     62      0.3209          0.6804E+06
   7238      1     92     63      0.3228          0.6804E+06
   7239      1     92     64      0.3253          0.6804E+06
   7240      1     92     65      0.3272          0.6804E+06
   7241      1     92     66      0.3291          0.6804E+06
   7242      1     92     67      0.3303          0.6804E+06
   7243      1     92     68      0.3310          0.6804E+06
   7244      1     92     69      0.3313          0.6804E+06
   7245      1     92     70      0.3317          0.6804E+06
   7246      1     92     71      0.3314          0.6804E+06
   7247      1     92     72      0.3308          0.6804E+06
   7248      1     92     73      0.3298          0.6804E+06
   7249      1     92     74      0.3284          0.6804E+06
   7250      1     92     75      0.3269          0.6804E+06
   7251      1     92     76      0.3260          0.6804E+06
   7252      1     92     77      0.3260          0.6804E+06
   7253      1     92     78      0.3264          0.6804E+06
   7254      1     92     79      0.3267          0.6804E+06
   7255      1     92     80      0.3267          0.6804E+06
   7256      1     92     81      0.3264          0.6804E+06
   7257      1     92     82      0.3257          0.6804E+06
   7258      1     92     83      0.3250          0.6804E+06
   7259      1     92     84      0.3241          0.6804E+06
   7260      1     92     85      0.3235          0.6804E+06
   7261      1     92     86      0.3231          0.6804E+06
   7262      1     92     87      0.3235          0.6804E+06
   7263      1     92     88      0.3244          0.6804E+06
   7264      1     92     89      0.3259          0.6804E+06
   7265      1     92     90      0.3278          0.6804E+06
   7266      1     92     91      0.3296          0.6804E+06
   7267      1     92     92      0.3319          0.6804E+06
   7268      1     92     93      0.3339          0.6804E+06
   7269      1     93      1      0.9559          0.6804E+06
   7270      1     93      2      0.9544          0.6804E+06
   7271      1     93      3      0.9525          0.6804E+06
   7272      1     93      4      0.9491          0.6804E+06
   7273      1     93      5      0.9445          0.6804E+06
   7274      1     93      6      0.9395          0.6804E+06
   7275      1     93      7      0.9328          0.6804E+06
   7276      1     93      8      0.9249          0.6804E+06
   7277      1     93      9      0.9172          0.6804E+06
   7278      1     93     10      0.9072          0.6804E+06
   7279      1     93     11      0.8971          0.6804E+06
   7280      1     93     12      0.8842          0.6804E+06
   7281      1     93     13      0.8700          0.6804E+06
   7282      1     93     14      0.8569          0.6804E+06
   7283      1     93     15      0.8417          0.6804E+06
   7284      1     93     16      0.8285          0.6804E+06
   7285      1     93     17      0.8120          0.6804E+06
   7286      1     93     18      0.7934          0.6804E+06
   7287      1     93     19      0.7755          0.6804E+06
   7288      1     93     20      0.7525          0.6804E+06
   7289      1     93     21      0.7246          0.6804E+06
   7290      1     93     22      0.6946          0.6804E+06
   7291      1     93     23      0.6521          0.6804E+06
   7292      1     93     24      0.6101          0.6804E+06
   7293      1     93     25      0.5593          0.6804E+06
   7294      1     93     26      0.5072          0.6804E+06
   7295      1     93     27      0.4626          0.6804E+06
   7296      1     93     28      0.4159          0.6804E+06
   7297      1     93     29      0.3769          0.6804E+06
   7298      1     93     30      0.3506          0.6804E+06
   7299      1     93     31      0.3302          0.6804E+06
   7300      1     93     32      0.3185          0.6804E+06
   7301      1     93     33      0.3097          0.6804E+06
   7302      1     93     34      0.3048          0.6804E+06
   7303      1     93     35      0.3025          0.6804E+06
   7304      1     93     36      0.3019          0.6804E+06
   7305      1     93     37      0.3036          0.6804E+06
   7306      1     93     38      0.3071          0.6804E+06
   7307      1     93     39      0.3130          0.6804E+06
   7308      1     93     40      0.3204          0.6804E+06
   7309      1     93     41      0.3299          0.6804E+06
   7310      1     93     42      0.3346          0.6804E+06
   7311      1     93     43      0.3353          0.6804E+06
   7312      1     93     44      0.3355          0.6804E+06
   7313      1     93     45      0.3362          0.6804E+06
   7314      1     93     46      0.3385          0.6804E+06
   7315      1     93     47      0.3434          0.6804E+06
   7316      1     93     48      0.3483          0.6804E+06
   7317      1     93     49      0.3538          0.6804E+06
   7318      1     93     50      0.3589          0.6804E+06
   7319      1     93     51      0.3592          0.6804E+06
   7320      1     93     52      0.3522          0.6804E+06
   7321      1     93     53      0.3466          0.6804E+06
   7322      1     93     54      0.3418          0.6804E+06
   7323      1     93     55      0.3380          0.6804E+06
   7324      1     93     56      0.3356          0.6804E+06
   7325      1     93     57      0.3334          0.6804E+06
   7326      1     93     58      0.3311          0.6804E+06
   7327      1     93     59      0.3297          0.6804E+06
   7328      1     93     60      0.3289          0.6804E+06
   7329      1     93     61      0.3280          0.6804E+06
   7330      1     93     62      0.3271          0.6804E+06
   7331      1     93     63      0.3278          0.6804E+06
   7332      1     93     64      0.3291          0.6804E+06
   7333      1     93     65      0.3306          0.6804E+06
   7334      1     93     66      0.3319          0.6804E+06
   7335      1     93     67      0.3330          0.6804E+06
   7336      1     93     68      0.3337          0.6804E+06
   7337      1     93     69      0.3340          0.6804E+06
   7338      1     93     70      0.3342          0.6804E+06
   7339      1     93     71      0.3339          0.6804E+06
   7340      1     93     72      0.3333          0.6804E+06
   7341      1     93     73      0.3325          0.6804E+06
   7342      1     93     74      0.3315          0.6804E+06
   7343      1     93     75      0.3306          0.6804E+06
   7344      1     93     76      0.3297          0.6804E+06
   7345      1     93     77      0.3292          0.6804E+06
   7346      1     93     78      0.3287          0.6804E+06
   7347      1     93     79      0.3281          0.6804E+06
   7348      1     93     80      0.3275          0.6804E+06
   7349      1     93     81      0.3267          0.6804E+06
   7350      1     93     82      0.3256          0.6804E+06
   7351      1     93     83      0.3246          0.6804E+06
   7352      1     93     84      0.3234          0.6804E+06
   7353      1     93     85      0.3224          0.6804E+06
   7354      1     93     86      0.3218          0.6804E+06
   7355      1     93     87      0.3221          0.6804E+06
   7356      1     93     88      0.3232          0.6804E+06
   7357      1     93     89      0.3250          0.6804E+06
   7358      1     93     90      0.3272          0.6804E+06
   7359      1     93     91      0.3292          0.6804E+06
   7360      1     93     92      0.3316          0.6804E+06
   7361      1     93     93      0.3337          0.6804E+06
   7362      1     93     94      0.3360          0.6804E+06
   7363      1     94      1      0.9497          0.6804E+06
   7364      1     94      2      0.9487          0.6804E+06
   7365      1     94      3      0.9471          0.6804E+06
   7366      1     94      4      0.9441          0.6804E+06
   7367      1     94      5      0.9394          0.6804E+06
   7368      1     94      6      0.9342          0.6804E+06
   7369      1     94      7      0.9275          0.6804E+06
   7370      1     94      8      0.9198          0.6804E+06
   7371      1     94      9      0.9122          0.6804E+06
   7372      1     94     10      0.9027          0.6804E+06
   7373      1     94     11      0.8932          0.6804E+06
   7374      1     94     12      0.8813          0.6804E+06
   7375      1     94     13      0.8686          0.6804E+06
   7376      1     94     14      0.8571          0.6804E+06
   7377      1     94     15      0.8437          0.6804E+06
   7378      1     94     16      0.8321          0.6804E+06
   7379      1     94     17      0.8181          0.6804E+06
   7380      1     94     18      0.8030          0.6804E+06
   7381      1     94     19      0.7884          0.6804E+06
   7382      1     94     20      0.7688          0.6804E+06
   7383      1     94     21      0.7437          0.6804E+06
   7384      1     94     22      0.7152          0.6804E+06
   7385      1     94     23      0.6724          0.6804E+06
   7386      1     94     24      0.6295          0.6804E+06
   7387      1     94     25      0.5774          0.6804E+06
   7388      1     94     26      0.5238          0.6804E+06
   7389      1     94     27      0.4776          0.6804E+06
   7390      1     94     28      0.4286          0.6804E+06
   7391      1     94     29      0.3889          0.6804E+06
   7392      1     94     30      0.3637          0.6804E+06
   7393      1     94     31      0.3467          0.6804E+06
   7394      1     94     32      0.3378          0.6804E+06
   7395      1     94     33      0.3315          0.6804E+06
   7396      1     94     34      0.3285          0.6804E+06
   7397      1     94     35      0.3276          0.6804E+06
   7398      1     94     36      0.3281          0.6804E+06
   7399      1     94     37      0.3308          0.6804E+06
   7400      1     94     38      0.3351          0.6804E+06
   7401      1     94     39      0.3412          0.6804E+06
   7402      1     94     40      0.3483          0.6804E+06
   7403      1     94     41      0.3568          0.6804E+06
   7404      1     94     42      0.3610          0.6804E+06
   7405      1     94     43      0.3617          0.6804E+06
   7406      1     94     44      0.3616          0.6804E+06
   7407      1     94     45      0.3620          0.6804E+06
   7408      1     94     46      0.3637          0.6804E+06
   7409      1     94     47      0.3677          0.6804E+06
   7410      1     94     48      0.3726          0.6804E+06
   7411      1     94     49      0.3801          0.6804E+06
   7412      1     94     50      0.3870          0.6804E+06
   7413      1     94     51      0.3869          0.6804E+06
   7414      1     94     52      0.3765          0.6804E+06
   7415      1     94     53      0.3684          0.6804E+06
   7416      1     94     54      0.3607          0.6804E+06
   7417      1     94     55      0.3541          0.6804E+06
   7418      1     94     56      0.3492          0.6804E+06
   7419      1     94     57      0.3444          0.6804E+06
   7420      1     94     58      0.3404          0.6804E+06
   7421      1     94     59      0.3378          0.6804E+06
   7422      1     94     60      0.3359          0.6804E+06
   7423      1     94     61      0.3342          0.6804E+06
   7424      1     94     62      0.3328          0.6804E+06
   7425      1     94     63      0.3326          0.6804E+06
   7426      1     94     64      0.3331          0.6804E+06
   7427      1     94     65      0.3337          0.6804E+06
   7428      1     94     66      0.3346          0.6804E+06
   7429      1     94     67      0.3354          0.6804E+06
   7430      1     94     68      0.3359          0.6804E+06
   7431      1     94     69      0.3361          0.6804E+06
   7432      1     94     70      0.3363          0.6804E+06
   7433      1     94     71      0.3361          0.6804E+06
   7434      1     94     72      0.3357          0.6804E+06
   7435      1     94     73      0.3351          0.6804E+06
   7436      1     94     74      0.3345          0.6804E+06
   7437      1     94     75      0.3338          0.6804E+06
   7438      1     94     76      0.3330          0.6804E+06
   7439      1     94     77      0.3322          0.6804E+06
   7440      1     94     78      0.3310          0.6804E+06
   7441      1     94     79      0.3297          0.6804E+06
   7442      1     94     80      0.3286          0.6804E+06
   7443      1     94     81      0.3272          0.6804E+06
   7444      1     94     82      0.3258          0.6804E+06
   7445      1     94     83      0.3244          0.6804E+06
   7446      1     94     84      0.3229          0.6804E+06
   7447      1     94     85      0.3217          0.6804E+06
   7448      1     94     86      0.3206          0.6804E+06
   7449      1     94     87      0.3210          0.6804E+06
   7450      1     94     88      0.3223          0.6804E+06
   7451      1     94     89      0.3244          0.6804E+06
   7452      1     94     90      0.3268          0.6804E+06
   7453      1     94     91      0.3289          0.6804E+06
   7454      1     94     92      0.3314          0.6804E+06
   7455      1     94     93      0.3335          0.6804E+06
   7456      1     94     94      0.3359          0.6804E+06
   7457      1     94     95      0.3382          0.6804E+06
   7458      1     95      1      0.9422          0.6804E+06
   7459      1     95      2      0.9414          0.6804E+06
   7460      1     95      3      0.9400          0.6804E+06
   7461      1     95      4      0.9371          0.6804E+06
   7462      1     95      5      0.9325          0.6804E+06
   7463      1     95      6      0.9274          0.6804E+06
   7464      1     95      7      0.9208          0.6804E+06
   7465      1     95      8      0.9132          0.6804E+06
   7466      1     95      9      0.9059          0.6804E+06
   7467      1     95     10      0.8967          0.6804E+06
   7468      1     95     11      0.8878          0.6804E+06
   7469      1     95     12      0.8768          0.6804E+06
   7470      1     95     13      0.8652          0.6804E+06
   7471      1     95     14      0.8549          0.6804E+06
   7472      1     95     15      0.8430          0.6804E+06
   7473      1     95     16      0.8330          0.6804E+06
   7474      1     95     17      0.8218          0.6804E+06
   7475      1     95     18      0.8105          0.6804E+06
   7476      1     95     19      0.8000          0.6804E+06
   7477      1     95     20      0.7858          0.6804E+06
   7478      1     95     21      0.7657          0.6804E+06
   7479      1     95     22      0.7398          0.6804E+06
   7480      1     95     23      0.6957          0.6804E+06
   7481      1     95     24      0.6515          0.6804E+06
   7482      1     95     25      0.5984          0.6804E+06
   7483      1     95     26      0.5435          0.6804E+06
   7484      1     95     27      0.4956          0.6804E+06
   7485      1     95     28      0.4432          0.6804E+06
   7486      1     95     29      0.4017          0.6804E+06
   7487      1     95     30      0.3778          0.6804E+06
   7488      1     95     31      0.3667          0.6804E+06
   7489      1     95     32      0.3613          0.6804E+06
   7490      1     95     33      0.3575          0.6804E+06
   7491      1     95     34      0.3560          0.6804E+06
   7492      1     95     35      0.3560          0.6804E+06
   7493      1     95     36      0.3573          0.6804E+06
   7494      1     95     37      0.3605          0.6804E+06
   7495      1     95     38      0.3650          0.6804E+06
   7496      1     95     39      0.3712          0.6804E+06
   7497      1     95     40      0.3777          0.6804E+06
   7498      1     95     41      0.3847          0.6804E+06
   7499      1     95     42      0.3880          0.6804E+06
   7500      1     95     43      0.3881          0.6804E+06
   7501      1     95     44      0.3875          0.6804E+06
   7502      1     95     45      0.3875          0.6804E+06
   7503      1     95     46      0.3888          0.6804E+06
   7504      1     95     47      0.3922          0.6804E+06
   7505      1     95     48      0.3963          0.6804E+06
   7506      1     95     49      0.4018          0.6804E+06
   7507      1     95     50      0.4055          0.6804E+06
   7508      1     95     51      0.4043          0.6804E+06
   7509      1     95     52      0.3957          0.6804E+06
   7510      1     95     53      0.3872          0.6804E+06
   7511      1     95     54      0.3780          0.6804E+06
   7512      1     95     55      0.3691          0.6804E+06
   7513      1     95     56      0.3620          0.6804E+06
   7514      1     95     57      0.3559          0.6804E+06
   7515      1     95     58      0.3505          0.6804E+06
   7516      1     95     59      0.3467          0.6804E+06
   7517      1     95     60      0.3433          0.6804E+06
   7518      1     95     61      0.3408          0.6804E+06
   7519      1     95     62      0.3386          0.6804E+06
   7520      1     95     63      0.3376          0.6804E+06
   7521      1     95     64      0.3375          0.6804E+06
   7522      1     95     65      0.3375          0.6804E+06
   7523      1     95     66      0.3378          0.6804E+06
   7524      1     95     67      0.3380          0.6804E+06
   7525      1     95     68      0.3383          0.6804E+06
   7526      1     95     69      0.3384          0.6804E+06
   7527      1     95     70      0.3385          0.6804E+06
   7528      1     95     71      0.3384          0.6804E+06
   7529      1     95     72      0.3382          0.6804E+06
   7530      1     95     73      0.3380          0.6804E+06
   7531      1     95     74      0.3378          0.6804E+06
   7532      1     95     75      0.3375          0.6804E+06
   7533      1     95     76      0.3367          0.6804E+06
   7534      1     95     77      0.3355          0.6804E+06
   7535      1     95     78      0.3336          0.6804E+06
   7536      1     95     79      0.3317          0.6804E+06
   7537      1     95     80      0.3300          0.6804E+06
   7538      1     95     81      0.3280          0.6804E+06
   7539      1     95     82      0.3262          0.6804E+06
   7540      1     95     83      0.3246          0.6804E+06
   7541      1     95     84      0.3228          0.6804E+06
   7542      1     95     85      0.3213          0.6804E+06
   7543      1     95     86      0.3198          0.6804E+06
   7544      1     95     87      0.3202          0.6804E+06
   7545      1     95     88      0.3217          0.6804E+06
   7546      1     95     89      0.3240          0.6804E+06
   7547      1     95     90      0.3264          0.6804E+06
   7548      1     95     91      0.3286          0.6804E+06
   7549      1     95     92      0.3311          0.6804E+06
   7550      1     95     93      0.3333          0.6804E+06
   7551      1     95     94      0.3357          0.6804E+06
   7552      1     95     95      0.3381          0.6804E+06
   7553      1     96      1      0.9344          0.6804E+06
   7554      1     96      2      0.9335          0.6804E+06
   7555      1     96      3      0.9320          0.6804E+06
   7556      1     96      4      0.9291          0.6804E+06
   7557      1     96      5      0.9246          0.6804E+06
   7558      1     96      6      0.9197          0.6804E+06
   7559      1     96      7      0.9134          0.6804E+06
   7560      1     96      8      0.9060          0.6804E+06
   7561      1     96      9      0.8989          0.6804E+06
   7562      1     96     10      0.8900          0.6804E+06
   7563      1     96     11      0.8815          0.6804E+06
   7564      1     96     12      0.8710          0.6804E+06
   7565      1     96     13      0.8602          0.6804E+06
   7566      1     96     14      0.8505          0.6804E+06
   7567      1     96     15      0.8396          0.6804E+06
   7568      1     96     16      0.8308          0.6804E+06
   7569      1     96     17      0.8220          0.6804E+06
   7570      1     96     18      0.8142          0.6804E+06
   7571      1     96     19      0.8072          0.6804E+06
   7572      1     96     20      0.7978          0.6804E+06
   7573      1     96     21      0.7834          0.6804E+06
   7574      1     96     22      0.7614          0.6804E+06
   7575      1     96     23      0.7161          0.6804E+06
   7576      1     96     24      0.6718          0.6804E+06
   7577      1     96     25      0.6194          0.6804E+06
   7578      1     96     26      0.5651          0.6804E+06
   7579      1     96     27      0.5171          0.6804E+06
   7580      1     96     28      0.4630          0.6804E+06
   7581      1     96     29      0.4201          0.6804E+06
   7582      1     96     30      0.3973          0.6804E+06
   7583      1     96     31      0.3915          0.6804E+06
   7584      1     96     32      0.3882          0.6804E+06
   7585      1     96     33      0.3854          0.6804E+06
   7586      1     96     34      0.3842          0.6804E+06
   7587      1     96     35      0.3842          0.6804E+06
   7588      1     96     36      0.3854          0.6804E+06
   7589      1     96     37      0.3884          0.6804E+06
   7590      1     96     38      0.3926          0.6804E+06
   7591      1     96     39      0.3985          0.6804E+06
   7592      1     96     40      0.4046          0.6804E+06
   7593      1     96     41      0.4106          0.6804E+06
   7594      1     96     42      0.4127          0.6804E+06
   7595      1     96     43      0.4116          0.6804E+06
   7596      1     96     44      0.4096          0.6804E+06
   7597      1     96     45      0.4089          0.6804E+06
   7598      1     96     46      0.4094          0.6804E+06
   7599      1     96     47      0.4117          0.6804E+06
   7600      1     96     48      0.4147          0.6804E+06
   7601      1     96     49      0.4182          0.6804E+06
   7602      1     96     50      0.4196          0.6804E+06
   7603      1     96     51      0.4174          0.6804E+06
   7604      1     96     52      0.4093          0.6804E+06
   7605      1     96     53      0.4006          0.6804E+06
   7606      1     96     54      0.3904          0.6804E+06
   7607      1     96     55      0.3803          0.6804E+06
   7608      1     96     56      0.3727          0.6804E+06
   7609      1     96     57      0.3653          0.6804E+06
   7610      1     96     58      0.3591          0.6804E+06
   7611      1     96     59      0.3544          0.6804E+06
   7612      1     96     60      0.3499          0.6804E+06
   7613      1     96     61      0.3467          0.6804E+06
   7614      1     96     62      0.3438          0.6804E+06
   7615      1     96     63      0.3420          0.6804E+06
   7616      1     96     64      0.3413          0.6804E+06
   7617      1     96     65      0.3410          0.6804E+06
   7618      1     96     66      0.3407          0.6804E+06
   7619      1     96     67      0.3405          0.6804E+06
   7620      1     96     68      0.3405          0.6804E+06
   7621      1     96     69      0.3405          0.6804E+06
   7622      1     96     70      0.3405          0.6804E+06
   7623      1     96     71      0.3404          0.6804E+06
   7624      1     96     72      0.3404          0.6804E+06
   7625      1     96     73      0.3404          0.6804E+06
   7626      1     96     74      0.3405          0.6804E+06
   7627      1     96     75      0.3406          0.6804E+06
   7628      1     96     76      0.3399          0.6804E+06
   7629      1     96     77      0.3382          0.6804E+06
   7630      1     96     78      0.3357          0.6804E+06
   7631      1     96     79      0.3333          0.6804E+06
   7632      1     96     80      0.3312          0.6804E+06
   7633      1     96     81      0.3290          0.6804E+06
   7634      1     96     82      0.3268          0.6804E+06
   7635      1     96     83      0.3250          0.6804E+06
   7636      1     96     84      0.3232          0.6804E+06
   7637      1     96     85      0.3217          0.6804E+06
   7638      1     96     86      0.3206          0.6804E+06
   7639      1     96     87      0.3209          0.6804E+06
   7640      1     96     88      0.3220          0.6804E+06
   7641      1     96     89      0.3241          0.6804E+06
   7642      1     96     90      0.3264          0.6804E+06
   7643      1     96     91      0.3285          0.6804E+06
   7644      1     96     92      0.3309          0.6804E+06
   7645      1     96     93      0.3331          0.6804E+06
   7646      1     96     94      0.3355          0.6804E+06
   7647      1     96     95      0.3377          0.6804E+06
   7648      1     96     96      0.3395          0.6804E+06
   7649      1     97      1      0.9274          0.6804E+06
   7650      1     97      2      0.9264          0.6804E+06
   7651      1     97      3      0.9247          0.6804E+06
   7652      1     97      4      0.9217          0.6804E+06
   7653      1     97      5      0.9173          0.6804E+06
   7654      1     97      6      0.9125          0.6804E+06
   7655      1     97      7      0.9063          0.6804E+06
   7656      1     97      8      0.8991          0.6804E+06
   7657      1     97      9      0.8922          0.6804E+06
   7658      1     97     10      0.8835          0.6804E+06
   7659      1     97     11      0.8753          0.6804E+06
   7660      1     97     12      0.8652          0.6804E+06
   7661      1     97     13      0.8549          0.6804E+06
   7662      1     97     14      0.8456          0.6804E+06
   7663      1     97     15      0.8348          0.6804E+06
   7664      1     97     16      0.8267          0.6804E+06
   7665      1     97     17      0.8195          0.6804E+06
   7666      1     97     18      0.8145          0.6804E+06
   7667      1     97     19      0.8098          0.6804E+06
   7668      1     97     20      0.8023          0.6804E+06
   7669      1     97     21      0.7888          0.6804E+06
   7670      1     97     22      0.7680          0.6804E+06
   7671      1     97     23      0.7275          0.6804E+06
   7672      1     97     24      0.6867          0.6804E+06
   7673      1     97     25      0.6374          0.6804E+06
   7674      1     97     26      0.5863          0.6804E+06
   7675      1     97     27      0.5413          0.6804E+06
   7676      1     97     28      0.4923          0.6804E+06
   7677      1     97     29      0.4532          0.6804E+06
   7678      1     97     30      0.4309          0.6804E+06
   7679      1     97     31      0.4213          0.6804E+06
   7680      1     97     32      0.4162          0.6804E+06
   7681      1     97     33      0.4119          0.6804E+06
   7682      1     97     34      0.4096          0.6804E+06
   7683      1     97     35      0.4088          0.6804E+06
   7684      1     97     36      0.4090          0.6804E+06
   7685      1     97     37      0.4113          0.6804E+06
   7686      1     97     38      0.4148          0.6804E+06
   7687      1     97     39      0.4200          0.6804E+06
   7688      1     97     40      0.4256          0.6804E+06
   7689      1     97     41      0.4308          0.6804E+06
   7690      1     97     42      0.4318          0.6804E+06
   7691      1     97     43      0.4293          0.6804E+06
   7692      1     97     44      0.4260          0.6804E+06
   7693      1     97     45      0.4243          0.6804E+06
   7694      1     97     46      0.4239          0.6804E+06
   7695      1     97     47      0.4250          0.6804E+06
   7696      1     97     48      0.4268          0.6804E+06
   7697      1     97     49      0.4292          0.6804E+06
   7698      1     97     50      0.4297          0.6804E+06
   7699      1     97     51      0.4270          0.6804E+06
   7700      1     97     52      0.4181          0.6804E+06
   7701      1     97     53      0.4087          0.6804E+06
   7702      1     97     54      0.3979          0.6804E+06
   7703      1     97     55      0.3877          0.6804E+06
   7704      1     97     56      0.3799          0.6804E+06
   7705      1     97     57      0.3719          0.6804E+06
   7706      1     97     58      0.3652          0.6804E+06
   7707      1     97     59      0.3601          0.6804E+06
   7708      1     97     60      0.3551          0.6804E+06
   7709      1     97     61      0.3513          0.6804E+06
   7710      1     97     62      0.3479          0.6804E+06
   7711      1     97     63      0.3456          0.6804E+06
   7712      1     97     64      0.3444          0.6804E+06
   7713      1     97     65      0.3436          0.6804E+06
   7714      1     97     66      0.3429          0.6804E+06
   7715      1     97     67      0.3424          0.6804E+06
   7716      1     97     68      0.3422          0.6804E+06
   7717      1     97     69      0.3421          0.6804E+06
   7718      1     97     70      0.3420          0.6804E+06
   7719      1     97     71      0.3419          0.6804E+06
   7720      1     97     72      0.3419          0.6804E+06
   7721      1     97     73      0.3420          0.6804E+06
   7722      1     97     74      0.3421          0.6804E+06
   7723      1     97     75      0.3423          0.6804E+06
   7724      1     97     76      0.3417          0.6804E+06
   7725      1     97     77      0.3397          0.6804E+06
   7726      1     97     78      0.3370          0.6804E+06
   7727      1     97     79      0.3343          0.6804E+06
   7728      1     97     80      0.3321          0.6804E+06
   7729      1     97     81      0.3297          0.6804E+06
   7730      1     97     82      0.3274          0.6804E+06
   7731      1     97     83      0.3256          0.6804E+06
   7732      1     97     84      0.3237          0.6804E+06
   7733      1     97     85      0.3224          0.6804E+06
   7734      1     97     86      0.3216          0.6804E+06
   7735      1     97     87      0.3217          0.6804E+06
   7736      1     97     88      0.3226          0.6804E+06
   7737      1     97     89      0.3243          0.6804E+06
   7738      1     97     90      0.3264          0.6804E+06
   7739      1     97     91      0.3284          0.6804E+06
   7740      1     97     92      0.3308          0.6804E+06
   7741      1     97     93      0.3329          0.6804E+06
   7742      1     97     94      0.3352          0.6804E+06
   7743      1     97     95      0.3373          0.6804E+06
   7744      1     97     96      0.3390          0.6804E+06
   7745      1     97     97      0.3406          0.6804E+06
   7746      1     98      1      0.9196          0.6804E+06
   7747      1     98      2      0.9182          0.6804E+06
   7748      1     98      3      0.9162          0.6804E+06
   7749      1     98      4      0.9130          0.6804E+06
   7750      1     98      5      0.9086          0.6804E+06
   7751      1     98      6      0.9039          0.6804E+06
   7752      1     98      7      0.8978          0.6804E+06
   7753      1     98      8      0.8907          0.6804E+06
   7754      1     98      9      0.8839          0.6804E+06
   7755      1     98     10      0.8756          0.6804E+06
   7756      1     98     11      0.8677          0.6804E+06
   7757      1     98     12      0.8580          0.6804E+06
   7758      1     98     13      0.8481          0.6804E+06
   7759      1     98     14      0.8390          0.6804E+06
   7760      1     98     15      0.8284          0.6804E+06
   7761      1     98     16      0.8207          0.6804E+06
   7762      1     98     17      0.8150          0.6804E+06
   7763      1     98     18      0.8129          0.6804E+06
   7764      1     98     19      0.8101          0.6804E+06
   7765      1     98     20      0.8034          0.6804E+06
   7766      1     98     21      0.7901          0.6804E+06
   7767      1     98     22      0.7705          0.6804E+06
   7768      1     98     23      0.7371          0.6804E+06
   7769      1     98     24      0.7017          0.6804E+06
   7770      1     98     25      0.6577          0.6804E+06
   7771      1     98     26      0.6117          0.6804E+06
   7772      1     98     27      0.5718          0.6804E+06
   7773      1     98     28      0.5301          0.6804E+06
   7774      1     98     29      0.4959          0.6804E+06
   7775      1     98     30      0.4741          0.6804E+06
   7776      1     98     31      0.4599          0.6804E+06
   7777      1     98     32      0.4513          0.6804E+06
   7778      1     98     33      0.4436          0.6804E+06
   7779      1     98     34      0.4386          0.6804E+06
   7780      1     98     35      0.4360          0.6804E+06
   7781      1     98     36      0.4344          0.6804E+06
   7782      1     98     37      0.4350          0.6804E+06
   7783      1     98     38      0.4371          0.6804E+06
   7784      1     98     39      0.4408          0.6804E+06
   7785      1     98     40      0.4448          0.6804E+06
   7786      1     98     41      0.4481          0.6804E+06
   7787      1     98     42      0.4480          0.6804E+06
   7788      1     98     43      0.4451          0.6804E+06
   7789      1     98     44      0.4410          0.6804E+06
   7790      1     98     45      0.4379          0.6804E+06
   7791      1     98     46      0.4363          0.6804E+06
   7792      1     98     47      0.4358          0.6804E+06
   7793      1     98     48      0.4363          0.6804E+06
   7794      1     98     49      0.4374          0.6804E+06
   7795      1     98     50      0.4372          0.6804E+06
   7796      1     98     51      0.4339          0.6804E+06
   7797      1     98     52      0.4242          0.6804E+06
   7798      1     98     53      0.4144          0.6804E+06
   7799      1     98     54      0.4036          0.6804E+06
   7800      1     98     55      0.3936          0.6804E+06
   7801      1     98     56      0.3858          0.6804E+06
   7802      1     98     57      0.3776          0.6804E+06
   7803      1     98     58      0.3704          0.6804E+06
   7804      1     98     59      0.3650          0.6804E+06
   7805      1     98     60      0.3596          0.6804E+06
   7806      1     98     61      0.3556          0.6804E+06
   7807      1     98     62      0.3519          0.6804E+06
   7808      1     98     63      0.3491          0.6804E+06
   7809      1     98     64      0.3474          0.6804E+06
   7810      1     98     65      0.3460          0.6804E+06
   7811      1     98     66      0.3449          0.6804E+06
   7812      1     98     67      0.3442          0.6804E+06
   7813      1     98     68      0.3438          0.6804E+06
   7814      1     98     69      0.3437          0.6804E+06
   7815      1     98     70      0.3435          0.6804E+06
   7816      1     98     71      0.3432          0.6804E+06
   7817      1     98     72      0.3431          0.6804E+06
   7818      1     98     73      0.3431          0.6804E+06
   7819      1     98     74      0.3430          0.6804E+06
   7820      1     98     75      0.3428          0.6804E+06
   7821      1     98     76      0.3418          0.6804E+06
   7822      1     98     77      0.3402          0.6804E+06
   7823      1     98     78      0.3377          0.6804E+06
   7824      1     98     79      0.3351          0.6804E+06
   7825      1     98     80      0.3328          0.6804E+06
   7826      1     98     81      0.3303          0.6804E+06
   7827      1     98     82      0.3280          0.6804E+06
   7828      1     98     83      0.3262          0.6804E+06
   7829      1     98     84      0.3244          0.6804E+06
   7830      1     98     85      0.3231          0.6804E+06
   7831      1     98     86      0.3224          0.6804E+06
   7832      1     98     87      0.3225          0.6804E+06
   7833      1     98     88      0.3232          0.6804E+06
   7834      1     98     89      0.3247          0.6804E+06
   7835      1     98     90      0.3266          0.6804E+06
   7836      1     98     91      0.3284          0.6804E+06
   7837      1     98     92      0.3307          0.6804E+06
   7838      1     98     93      0.3327          0.6804E+06
   7839      1     98     94      0.3349          0.6804E+06
   7840      1     98     95      0.3369          0.6804E+06
   7841      1     98     96      0.3385          0.6804E+06
   7842      1     98     97      0.3400          0.6804E+06
   7843      1     98     98      0.3410          0.6804E+06
   7844      1     99      1      0.9128          0.6804E+06
   7845      1     99      2      0.9111          0.6804E+06
   7846      1     99      3      0.9088          0.6804E+06
   7847      1     99      4      0.9054          0.6804E+06
   7848      1     99      5      0.9008          0.6804E+06
   7849      1     99      6      0.8960          0.6804E+06
   7850      1     99      7      0.8900          0.6804E+06
   7851      1     99      8      0.8831          0.6804E+06
   7852      1     99      9      0.8764          0.6804E+06
   7853      1     99     10      0.8683          0.6804E+06
   7854      1     99     11      0.8607          0.6804E+06
   7855      1     99     12      0.8514          0.6804E+06
   7856      1     99     13      0.8419          0.6804E+06
   7857      1     99     14      0.8333          0.6804E+06
   7858      1     99     15      0.8235          0.6804E+06
   7859      1     99     16      0.8166          0.6804E+06
   7860      1     99     17      0.8120          0.6804E+06
   7861      1     99     18      0.8112          0.6804E+06
   7862      1     99     19      0.8095          0.6804E+06
   7863      1     99     20      0.8038          0.6804E+06
   7864      1     99     21      0.7919          0.6804E+06
   7865      1     99     22      0.7744          0.6804E+06
   7866      1     99     23      0.7453          0.6804E+06
   7867      1     99     24      0.7141          0.6804E+06
   7868      1     99     25      0.6750          0.6804E+06
   7869      1     99     26      0.6339          0.6804E+06
   7870      1     99     27      0.5987          0.6804E+06
   7871      1     99     28      0.5627          0.6804E+06
   7872      1     99     29      0.5323          0.6804E+06
   7873      1     99     30      0.5114          0.6804E+06
   7874      1     99     31      0.4943          0.6804E+06
   7875      1     99     32      0.4823          0.6804E+06
   7876      1     99     33      0.4711          0.6804E+06
   7877      1     99     34      0.4631          0.6804E+06
   7878      1     99     35      0.4583          0.6804E+06
   7879      1     99     36      0.4547          0.6804E+06
   7880      1     99     37      0.4535          0.6804E+06
   7881      1     99     38      0.4540          0.6804E+06
   7882      1     99     39      0.4559          0.6804E+06
   7883      1     99     40      0.4581          0.6804E+06
   7884      1     99     41      0.4595          0.6804E+06
   7885      1     99     42      0.4584          0.6804E+06
   7886      1     99     43      0.4552          0.6804E+06
   7887      1     99     44      0.4509          0.6804E+06
   7888      1     99     45      0.4466          0.6804E+06
   7889      1     99     46      0.4436          0.6804E+06
   7890      1     99     47      0.4416          0.6804E+06
   7891      1     99     48      0.4407          0.6804E+06
   7892      1     99     49      0.4399          0.6804E+06
   7893      1     99     50      0.4379          0.6804E+06
   7894      1     99     51      0.4338          0.6804E+06
   7895      1     99     52      0.4252          0.6804E+06
   7896      1     99     53      0.4165          0.6804E+06
   7897      1     99     54      0.4063          0.6804E+06
   7898      1     99     55      0.3966          0.6804E+06
   7899      1     99     56      0.3890          0.6804E+06
   7900      1     99     57      0.3807          0.6804E+06
   7901      1     99     58      0.3735          0.6804E+06
   7902      1     99     59      0.3680          0.6804E+06
   7903      1     99     60      0.3625          0.6804E+06
   7904      1     99     61      0.3583          0.6804E+06
   7905      1     99     62      0.3545          0.6804E+06
   7906      1     99     63      0.3514          0.6804E+06
   7907      1     99     64      0.3494          0.6804E+06
   7908      1     99     65      0.3476          0.6804E+06
   7909      1     99     66      0.3463          0.6804E+06
   7910      1     99     67      0.3455          0.6804E+06
   7911      1     99     68      0.3449          0.6804E+06
   7912      1     99     69      0.3446          0.6804E+06
   7913      1     99     70      0.3443          0.6804E+06
   7914      1     99     71      0.3441          0.6804E+06
   7915      1     99     72      0.3439          0.6804E+06
   7916      1     99     73      0.3437          0.6804E+06
   7917      1     99     74      0.3434          0.6804E+06
   7918      1     99     75      0.3428          0.6804E+06
   7919      1     99     76      0.3417          0.6804E+06
   7920      1     99     77      0.3402          0.6804E+06
   7921      1     99     78      0.3379          0.6804E+06
   7922      1     99     79      0.3354          0.6804E+06
   7923      1     99     80      0.3332          0.6804E+06
   7924      1     99     81      0.3307          0.6804E+06
   7925      1     99     82      0.3284          0.6804E+06
   7926      1     99     83      0.3266          0.6804E+06
   7927      1     99     84      0.3248          0.6804E+06
   7928      1     99     85      0.3236          0.6804E+06
   7929      1     99     86      0.3229          0.6804E+06
   7930      1     99     87      0.3230          0.6804E+06
   7931      1     99     88      0.3236          0.6804E+06
   7932      1     99     89      0.3249          0.6804E+06
   7933      1     99     90      0.3267          0.6804E+06
   7934      1     99     91      0.3285          0.6804E+06
   7935      1     99     92      0.3307          0.6804E+06
   7936      1     99     93      0.3326          0.6804E+06
   7937      1     99     94      0.3347          0.6804E+06
   7938      1     99     95      0.3366          0.6804E+06
   7939      1     99     96      0.3381          0.6804E+06
   7940      1     99     97      0.3395          0.6804E+06
   7941      1     99     98      0.3405          0.6804E+06
   7942      1     99     99      0.3413          0.6804E+06
   7943      1    100      1      0.9051          0.6804E+06
   7944      1    100      2      0.9029          0.6804E+06
   7945      1    100      3      0.9002          0.6804E+06
   7946      1    100      4      0.8965          0.6804E+06
   7947      1    100      5      0.8917          0.6804E+06
   7948      1    100      6      0.8869          0.6804E+06
   7949      1    100      7      0.8809          0.6804E+06
   7950      1    100      8      0.8741          0.6804E+06
   7951      1    100      9      0.8676          0.6804E+06
   7952      1    100     10      0.8597          0.6804E+06
   7953      1    100     11      0.8523          0.6804E+06
   7954      1    100     12      0.8435          0.6804E+06
   7955      1    100     13      0.8347          0.6804E+06
   7956      1    100     14      0.8270          0.6804E+06
   7957      1    100     15      0.8188          0.6804E+06
   7958      1    100     16      0.8135          0.6804E+06
   7959      1    100     17      0.8102          0.6804E+06
   7960      1    100     18      0.8098          0.6804E+06
   7961      1    100     19      0.8091          0.6804E+06
   7962      1    100     20      0.8053          0.6804E+06
   7963      1    100     21      0.7961          0.6804E+06
   7964      1    100     22      0.7815          0.6804E+06
   7965      1    100     23      0.7559          0.6804E+06
   7966      1    100     24      0.7282          0.6804E+06
   7967      1    100     25      0.6935          0.6804E+06
   7968      1    100     26      0.6575          0.6804E+06
   7969      1    100     27      0.6270          0.6804E+06
   7970      1    100     28      0.5962          0.6804E+06
   7971      1    100     29      0.5696          0.6804E+06
   7972      1    100     30      0.5503          0.6804E+06
   7973      1    100     31      0.5315          0.6804E+06
   7974      1    100     32      0.5162          0.6804E+06
   7975      1    100     33      0.5008          0.6804E+06
   7976      1    100     34      0.4891          0.6804E+06
   7977      1    100     35      0.4816          0.6804E+06
   7978      1    100     36      0.4754          0.6804E+06
   7979      1    100     37      0.4719          0.6804E+06
   7980      1    100     38      0.4705          0.6804E+06
   7981      1    100     39      0.4703          0.6804E+06
   7982      1    100     40      0.4706          0.6804E+06
   7983      1    100     41      0.4703          0.6804E+06
   7984      1    100     42      0.4678          0.6804E+06
   7985      1    100     43      0.4639          0.6804E+06
   7986      1    100     44      0.4587          0.6804E+06
   7987      1    100     45      0.4532          0.6804E+06
   7988      1    100     46      0.4488          0.6804E+06
   7989      1    100     47      0.4447          0.6804E+06
   7990      1    100     48      0.4420          0.6804E+06
   7991      1    100     49      0.4390          0.6804E+06
   7992      1    100     50      0.4351          0.6804E+06
   7993      1    100     51      0.4303          0.6804E+06
   7994      1    100     52      0.4228          0.6804E+06
   7995      1    100     53      0.4154          0.6804E+06
   7996      1    100     54      0.4066          0.6804E+06
   7997      1    100     55      0.3979          0.6804E+06
   7998      1    100     56      0.3905          0.6804E+06
   7999      1    100     57      0.3826          0.6804E+06
   8000      1    100     58      0.3756          0.6804E+06
   8001      1    100     59      0.3701          0.6804E+06
   8002      1    100     60      0.3645          0.6804E+06
   8003      1    100     61      0.3604          0.6804E+06
   8004      1    100     62      0.3564          0.6804E+06
   8005      1    100     63      0.3531          0.6804E+06
   8006      1    100     64      0.3509          0.6804E+06
   8007      1    100     65      0.3489          0.6804E+06
   8008      1    100     66      0.3474          0.6804E+06
   8009      1    100     67      0.3465          0.6804E+06
   8010      1    100     68      0.3457          0.6804E+06
   8011      1    100     69      0.3452          0.6804E+06
   8012      1    100     70      0.3449          0.6804E+06
   8013      1    100     71      0.3446          0.6804E+06
   8014      1    100     72      0.3444          0.6804E+06
   8015      1    100     73      0.3440          0.6804E+06
   8016      1    100     74      0.3435          0.6804E+06
   8017      1    100     75      0.3428          0.6804E+06
   8018      1    100     76      0.3416          0.6804E+06
   8019      1    100     77      0.3401          0.6804E+06
   8020      1    100     78      0.3380          0.6804E+06
   8021      1    100     79      0.3356          0.6804E+06
   8022      1    100     80      0.3335          0.6804E+06
   8023      1    100     81      0.3310          0.6804E+06
   8024      1    100     82      0.3287          0.6804E+06
   8025      1    100     83      0.3268          0.6804E+06
   8026      1    100     84      0.3251          0.6804E+06
   8027      1    100     85      0.3239          0.6804E+06
   8028      1    100     86      0.3232          0.6804E+06
   8029      1    100     87      0.3233          0.6804E+06
   8030      1    100     88      0.3238          0.6804E+06
   8031      1    100     89      0.3251          0.6804E+06
   8032      1    100     90      0.3268          0.6804E+06
   8033      1    100     91      0.3286          0.6804E+06
   8034      1    100     92      0.3307          0.6804E+06
   8035      1    100     93      0.3325          0.6804E+06
   8036      1    100     94      0.3346          0.6804E+06
   8037      1    100     95      0.3365          0.6804E+06
   8038      1    100     96      0.3379          0.6804E+06
   8039      1    100     97      0.3392          0.6804E+06
   8040      1    100     98      0.3400          0.6804E+06
   8041      1    100     99      0.3406          0.6804E+06
   8042      1    100    100      0.3410          0.6804E+06

   8042 GHB CELLS



                           RECHARGE
 READING ON UNIT   19 WITH FORMAT: (100E15.6)          
 
 SOLVING FOR HEAD 

 NO OUTPUT CONTROL FOR STRESS PERIOD    2   TIME STEP    1
 SOLVING FOR ZETA FOR LAYER     1 ZONE     2
 SOLVING FOR ZETA FOR LAYER     2 ZONE     2
 SOLVING FOR ZETA FOR LAYER     3 ZONE     2
 
 SOLVING FOR HEAD 

 NO OUTPUT CONTROL FOR STRESS PERIOD    2   TIME STEP    2
 SOLVING FOR ZETA FOR LAYER     1 ZONE     2
 SOLVING FOR ZETA FOR LAYER     2 ZONE     2
 SOLVING FOR ZETA FOR LAYER     3 ZONE     2
 
 SOLVING FOR HEAD 

 NO OUTPUT CONTROL FOR STRESS PERIOD    2   TIME STEP    3
 SOLVING FOR ZETA FOR LAYER     1 ZONE     2
 SOLVING FOR ZETA FOR LAYER     2 ZONE     2
 SOLVING FOR ZETA FOR LAYER     3 ZONE     2
 
 SOLVING FOR HEAD 

 NO OUTPUT CONTROL FOR STRESS PERIOD    2   TIME STEP    4
 SOLVING FOR ZETA FOR LAYER     1 ZONE     2
 SOLVING FOR ZETA FOR LAYER     2 ZONE     2
 SOLVING FOR ZETA FOR LAYER     3 ZONE     2
 
 SOLVING FOR HEAD 

 NO OUTPUT CONTROL FOR STRESS PERIOD    2   TIME STEP    5
 SOLVING FOR ZETA FOR LAYER     1 ZONE     2
 SOLVING FOR ZETA FOR LAYER     2 ZONE     2
 SOLVING FOR ZETA FOR LAYER     3 ZONE     2
 
 SOLVING FOR HEAD 

 NO OUTPUT CONTROL FOR STRESS PERIOD    2   TIME STEP    6
 SOLVING FOR ZETA FOR LAYER     1 ZONE     2
 SOLVING FOR ZETA FOR LAYER     2 ZONE     2
 SOLVING FOR ZETA FOR LAYER     3 ZONE     2
 
 SOLVING FOR HEAD 

 NO OUTPUT CONTROL FOR STRESS PERIOD    2   TIME STEP    7
 SOLVING FOR ZETA FOR LAYER     1 ZONE     2
 SOLVING FOR ZETA FOR LAYER     2 ZONE     2
 SOLVING FOR ZETA FOR LAYER     3 ZONE     2
 
 SOLVING FOR HEAD 

 NO OUTPUT CONTROL FOR STRESS PERIOD    2   TIME STEP    8
 SOLVING FOR ZETA FOR LAYER     1 ZONE     2
 SOLVING FOR ZETA FOR LAYER     2 ZONE     2
 SOLVING FOR ZETA FOR LAYER     3 ZONE     2
 
 SOLVING FOR HEAD 

 NO OUTPUT CONTROL FOR STRESS PERIOD    2   TIME STEP    9
 SOLVING FOR ZETA FOR LAYER     1 ZONE     2
 SOLVING FOR ZETA FOR LAYER     2 ZONE     2
 SOLVING FOR ZETA FOR LAYER     3 ZONE     2
 
 SOLVING FOR HEAD 

 NO OUTPUT CONTROL FOR STRESS PERIOD    2   TIME STEP   10
 SOLVING FOR ZETA FOR LAYER     1 ZONE     2
 SOLVING FOR ZETA FOR LAYER     2 ZONE     2
 SOLVING FOR ZETA FOR LAYER     3 ZONE     2
 
 SOLVING FOR HEAD 

 NO OUTPUT CONTROL FOR STRESS PERIOD    2   TIME STEP   11
 SOLVING FOR ZETA FOR LAYER     1 ZONE     2
 SOLVING FOR ZETA FOR LAYER     2 ZONE     2
 SOLVING FOR ZETA FOR LAYER     3 ZONE     2
 
 SOLVING FOR HEAD 

 NO OUTPUT CONTROL FOR STRESS PERIOD    2   TIME STEP   12
 SOLVING FOR ZETA FOR LAYER     1 ZONE     2
 SOLVING FOR ZETA FOR LAYER     2 ZONE     2
 SOLVING FOR ZETA FOR LAYER     3 ZONE     2
 
 SOLVING FOR HEAD 

 NO OUTPUT CONTROL FOR STRESS PERIOD    2   TIME STEP   13
 SOLVING FOR ZETA FOR LAYER     1 ZONE     2
 SOLVING FOR ZETA FOR LAYER     2 ZONE     2
 SOLVING FOR ZETA FOR LAYER     3 ZONE     2
 
 SOLVING FOR HEAD 

 NO OUTPUT CONTROL FOR STRESS PERIOD    2   TIME STEP   14
 SOLVING FOR ZETA FOR LAYER     1 ZONE     2
 SOLVING FOR ZETA FOR LAYER     2 ZONE     2
 SOLVING FOR ZETA FOR LAYER     3 ZONE     2
 
 SOLVING FOR HEAD 

 NO OUTPUT CONTROL FOR STRESS PERIOD    2   TIME STEP   15
 SOLVING FOR ZETA FOR LAYER     1 ZONE     2
 SOLVING FOR ZETA FOR LAYER     2 ZONE     2
 SOLVING FOR ZETA FOR LAYER     3 ZONE     2
 
 SOLVING FOR HEAD 

 NO OUTPUT CONTROL FOR STRESS PERIOD    2   TIME STEP   16
 SOLVING FOR ZETA FOR LAYER     1 ZONE     2
 SOLVING FOR ZETA FOR LAYER     2 ZONE     2
 SOLVING FOR ZETA FOR LAYER     3 ZONE     2
 
 SOLVING FOR HEAD 

 NO OUTPUT CONTROL FOR STRESS PERIOD    2   TIME STEP   17
 SOLVING FOR ZETA FOR LAYER     1 ZONE     2
 SOLVING FOR ZETA FOR LAYER     2 ZONE     2
 SOLVING FOR ZETA FOR LAYER     3 ZONE     2
 
 SOLVING FOR HEAD 

 NO OUTPUT CONTROL FOR STRESS PERIOD    2   TIME STEP   18
 SOLVING FOR ZETA FOR LAYER     1 ZONE     2
 SOLVING FOR ZETA FOR LAYER     2 ZONE     2
 SOLVING FOR ZETA FOR LAYER     3 ZONE     2
 
 SOLVING FOR HEAD 

 NO OUTPUT CONTROL FOR STRESS PERIOD    2   TIME STEP   19
 SOLVING FOR ZETA FOR LAYER     1 ZONE     2
 SOLVING FOR ZETA FOR LAYER     2 ZONE     2
 SOLVING FOR ZETA FOR LAYER     3 ZONE     2
 
 SOLVING FOR HEAD 

 NO OUTPUT CONTROL FOR STRESS PERIOD    2   TIME STEP   20
 SOLVING FOR ZETA FOR LAYER     1 ZONE     2
 SOLVING FOR ZETA FOR LAYER     2 ZONE     2
 SOLVING FOR ZETA FOR LAYER     3 ZONE     2
 
 SOLVING FOR HEAD 

 NO OUTPUT CONTROL FOR STRESS PERIOD    2   TIME STEP   21
 SOLVING FOR ZETA FOR LAYER     1 ZONE     2
 SOLVING FOR ZETA FOR LAYER     2 ZONE     2
 SOLVING FOR ZETA FOR LAYER     3 ZONE     2
 
 SOLVING FOR HEAD 

 NO OUTPUT CONTROL FOR STRESS PERIOD    2   TIME STEP   22
 SOLVING FOR ZETA FOR LAYER     1 ZONE     2
 SOLVING FOR ZETA FOR LAYER     2 ZONE     2
 SOLVING FOR ZETA FOR LAYER     3 ZONE     2
 
 SOLVING FOR HEAD 

 NO OUTPUT CONTROL FOR STRESS PERIOD    2   TIME STEP   23
 SOLVING FOR ZETA FOR LAYER     1 ZONE     2
 SOLVING FOR ZETA FOR LAYER     2 ZONE     2
 SOLVING FOR ZETA FOR LAYER     3 ZONE     2
 
 SOLVING FOR HEAD 

 NO OUTPUT CONTROL FOR STRESS PERIOD    2   TIME STEP   24
 SOLVING FOR ZETA FOR LAYER     1 ZONE     2
 SOLVING FOR ZETA FOR LAYER     2 ZONE     2
 SOLVING FOR ZETA FOR LAYER     3 ZONE     2
 
 SOLVING FOR HEAD 

 NO OUTPUT CONTROL FOR STRESS PERIOD    2   TIME STEP   25
 SOLVING FOR ZETA FOR LAYER     1 ZONE     2
 SOLVING FOR ZETA FOR LAYER     2 ZONE     2
 SOLVING FOR ZETA FOR LAYER     3 ZONE     2
 
 SOLVING FOR HEAD 

 NO OUTPUT CONTROL FOR STRESS PERIOD    2   TIME STEP   26
 SOLVING FOR ZETA FOR LAYER     1 ZONE     2
 SOLVING FOR ZETA FOR LAYER     2 ZONE     2
 SOLVING FOR ZETA FOR LAYER     3 ZONE     2
 
 SOLVING FOR HEAD 

 NO OUTPUT CONTROL FOR STRESS PERIOD    2   TIME STEP   27
 SOLVING FOR ZETA FOR LAYER     1 ZONE     2
 SOLVING FOR ZETA FOR LAYER     2 ZONE     2
 SOLVING FOR ZETA FOR LAYER     3 ZONE     2
 
 SOLVING FOR HEAD 

 NO OUTPUT CONTROL FOR STRESS PERIOD    2   TIME STEP   28
 SOLVING FOR ZETA FOR LAYER     1 ZONE     2
 SOLVING FOR ZETA FOR LAYER     2 ZONE     2
 SOLVING FOR ZETA FOR LAYER     3 ZONE     2
 
 SOLVING FOR HEAD 

 NO OUTPUT CONTROL FOR STRESS PERIOD    2   TIME STEP   29
 SOLVING FOR ZETA FOR LAYER     1 ZONE     2
 SOLVING FOR ZETA FOR LAYER     2 ZONE     2
 SOLVING FOR ZETA FOR LAYER     3 ZONE     2
 
 SOLVING FOR HEAD 

 NO OUTPUT CONTROL FOR STRESS PERIOD    2   TIME STEP   30
 SOLVING FOR ZETA FOR LAYER     1 ZONE     2
 SOLVING FOR ZETA FOR LAYER     2 ZONE     2
 SOLVING FOR ZETA FOR LAYER     3 ZONE     2
 
 SOLVING FOR HEAD 

 NO OUTPUT CONTROL FOR STRESS PERIOD    2   TIME STEP   31
 SOLVING FOR ZETA FOR LAYER     1 ZONE     2
 SOLVING FOR ZETA FOR LAYER     2 ZONE     2
 SOLVING FOR ZETA FOR LAYER     3 ZONE     2
 
 SOLVING FOR HEAD 

 NO OUTPUT CONTROL FOR STRESS PERIOD    2   TIME STEP   32
 SOLVING FOR ZETA FOR LAYER     1 ZONE     2
 SOLVING FOR ZETA FOR LAYER     2 ZONE     2
 SOLVING FOR ZETA FOR LAYER     3 ZONE     2
 
 SOLVING FOR HEAD 

 NO OUTPUT CONTROL FOR STRESS PERIOD    2   TIME STEP   33
 SOLVING FOR ZETA FOR LAYER     1 ZONE     2
 SOLVING FOR ZETA FOR LAYER     2 ZONE     2
 SOLVING FOR ZETA FOR LAYER     3 ZONE     2
 
 SOLVING FOR HEAD 

 NO OUTPUT CONTROL FOR STRESS PERIOD    2   TIME STEP   34
 SOLVING FOR ZETA FOR LAYER     1 ZONE     2
 SOLVING FOR ZETA FOR LAYER     2 ZONE     2
 SOLVING FOR ZETA FOR LAYER     3 ZONE     2
 
 SOLVING FOR HEAD 

 NO OUTPUT CONTROL FOR STRESS PERIOD    2   TIME STEP   35
 SOLVING FOR ZETA FOR LAYER     1 ZONE     2
 SOLVING FOR ZETA FOR LAYER     2 ZONE     2
 SOLVING FOR ZETA FOR LAYER     3 ZONE     2
 
 SOLVING FOR HEAD 

 NO OUTPUT CONTROL FOR STRESS PERIOD    2   TIME STEP   36
 SOLVING FOR ZETA FOR LAYER     1 ZONE     2
 SOLVING FOR ZETA FOR LAYER     2 ZONE     2
 SOLVING FOR ZETA FOR LAYER     3 ZONE     2
 
 SOLVING FOR HEAD 

 NO OUTPUT CONTROL FOR STRESS PERIOD    2   TIME STEP   37
 SOLVING FOR ZETA FOR LAYER     1 ZONE     2
 SOLVING FOR ZETA FOR LAYER     2 ZONE     2
 SOLVING FOR ZETA FOR LAYER     3 ZONE     2
 
 SOLVING FOR HEAD 

 NO OUTPUT CONTROL FOR STRESS PERIOD    2   TIME STEP   38
 SOLVING FOR ZETA FOR LAYER     1 ZONE     2
 SOLVING FOR ZETA FOR LAYER     2 ZONE     2
 SOLVING FOR ZETA FOR LAYER     3 ZONE     2
 
 SOLVING FOR HEAD 

 NO OUTPUT CONTROL FOR STRESS PERIOD    2   TIME STEP   39
 SOLVING FOR ZETA FOR LAYER     1 ZONE     2
 SOLVING FOR ZETA FOR LAYER     2 ZONE     2
 SOLVING FOR ZETA FOR LAYER     3 ZONE     2
 
 SOLVING FOR HEAD 

 NO OUTPUT CONTROL FOR STRESS PERIOD    2   TIME STEP   40
 SOLVING FOR ZETA FOR LAYER     1 ZONE     2
 SOLVING FOR ZETA FOR LAYER     2 ZONE     2
 SOLVING FOR ZETA FOR LAYER     3 ZONE     2
 
 SOLVING FOR HEAD 

 NO OUTPUT CONTROL FOR STRESS PERIOD    2   TIME STEP   41
 SOLVING FOR ZETA FOR LAYER     1 ZONE     2
 SOLVING FOR ZETA FOR LAYER     2 ZONE     2
 SOLVING FOR ZETA FOR LAYER     3 ZONE     2
 
 SOLVING FOR HEAD 

 NO OUTPUT CONTROL FOR STRESS PERIOD    2   TIME STEP   42
 SOLVING FOR ZETA FOR LAYER     1 ZONE     2
 SOLVING FOR ZETA FOR LAYER     2 ZONE     2
 SOLVING FOR ZETA FOR LAYER     3 ZONE     2
 
 SOLVING FOR HEAD 

 NO OUTPUT CONTROL FOR STRESS PERIOD    2   TIME STEP   43
 SOLVING FOR ZETA FOR LAYER     1 ZONE     2
 SOLVING FOR ZETA FOR LAYER     2 ZONE     2
 SOLVING FOR ZETA FOR LAYER     3 ZONE     2
 
 SOLVING FOR HEAD 

 NO OUTPUT CONTROL FOR STRESS PERIOD    2   TIME STEP   44
 SOLVING FOR ZETA FOR LAYER     1 ZONE     2
 SOLVING FOR ZETA FOR LAYER     2 ZONE     2
 SOLVING FOR ZETA FOR LAYER     3 ZONE     2
 
 SOLVING FOR HEAD 

 NO OUTPUT CONTROL FOR STRESS PERIOD    2   TIME STEP   45
 SOLVING FOR ZETA FOR LAYER     1 ZONE     2
 SOLVING FOR ZETA FOR LAYER     2 ZONE     2
 SOLVING FOR ZETA FOR LAYER     3 ZONE     2
 
 SOLVING FOR HEAD 

 NO OUTPUT CONTROL FOR STRESS PERIOD    2   TIME STEP   46
 SOLVING FOR ZETA FOR LAYER     1 ZONE     2
 SOLVING FOR ZETA FOR LAYER     2 ZONE     2
 SOLVING FOR ZETA FOR LAYER     3 ZONE     2
 
 SOLVING FOR HEAD 

 NO OUTPUT CONTROL FOR STRESS PERIOD    2   TIME STEP   47
 SOLVING FOR ZETA FOR LAYER     1 ZONE     2
 SOLVING FOR ZETA FOR LAYER     2 ZONE     2
 SOLVING FOR ZETA FOR LAYER     3 ZONE     2
 
 SOLVING FOR HEAD 

 NO OUTPUT CONTROL FOR STRESS PERIOD    2   TIME STEP   48
 SOLVING FOR ZETA FOR LAYER     1 ZONE     2
 SOLVING FOR ZETA FOR LAYER     2 ZONE     2
 SOLVING FOR ZETA FOR LAYER     3 ZONE     2
 
 SOLVING FOR HEAD 

 NO OUTPUT CONTROL FOR STRESS PERIOD    2   TIME STEP   49
 SOLVING FOR ZETA FOR LAYER     1 ZONE     2
 SOLVING FOR ZETA FOR LAYER     2 ZONE     2
 SOLVING FOR ZETA FOR LAYER     3 ZONE     2
 
 SOLVING FOR HEAD 

 NO OUTPUT CONTROL FOR STRESS PERIOD    2   TIME STEP   50
 SOLVING FOR ZETA FOR LAYER     1 ZONE     2
 SOLVING FOR ZETA FOR LAYER     2 ZONE     2
 SOLVING FOR ZETA FOR LAYER     3 ZONE     2
 
 SOLVING FOR HEAD 

 NO OUTPUT CONTROL FOR STRESS PERIOD    2   TIME STEP   51
 SOLVING FOR ZETA FOR LAYER     1 ZONE     2
 SOLVING FOR ZETA FOR LAYER     2 ZONE     2
 SOLVING FOR ZETA FOR LAYER     3 ZONE     2
 
 SOLVING FOR HEAD 

 NO OUTPUT CONTROL FOR STRESS PERIOD    2   TIME STEP   52
 SOLVING FOR ZETA FOR LAYER     1 ZONE     2
 SOLVING FOR ZETA FOR LAYER     2 ZONE     2
 SOLVING FOR ZETA FOR LAYER     3 ZONE     2
 
 SOLVING FOR HEAD 

 NO OUTPUT CONTROL FOR STRESS PERIOD    2   TIME STEP   53
 SOLVING FOR ZETA FOR LAYER     1 ZONE     2
 SOLVING FOR ZETA FOR LAYER     2 ZONE     2
 SOLVING FOR ZETA FOR LAYER     3 ZONE     2
 
 SOLVING FOR HEAD 

 NO OUTPUT CONTROL FOR STRESS PERIOD    2   TIME STEP   54
 SOLVING FOR ZETA FOR LAYER     1 ZONE     2
 SOLVING FOR ZETA FOR LAYER     2 ZONE     2
 SOLVING FOR ZETA FOR LAYER     3 ZONE     2
 
 SOLVING FOR HEAD 

 NO OUTPUT CONTROL FOR STRESS PERIOD    2   TIME STEP   55
 SOLVING FOR ZETA FOR LAYER     1 ZONE     2
 SOLVING FOR ZETA FOR LAYER     2 ZONE     2
 SOLVING FOR ZETA FOR LAYER     3 ZONE     2
 
 SOLVING FOR HEAD 

 NO OUTPUT CONTROL FOR STRESS PERIOD    2   TIME STEP   56
 SOLVING FOR ZETA FOR LAYER     1 ZONE     2
 SOLVING FOR ZETA FOR LAYER     2 ZONE     2
 SOLVING FOR ZETA FOR LAYER     3 ZONE     2
 
 SOLVING FOR HEAD 

 NO OUTPUT CONTROL FOR STRESS PERIOD    2   TIME STEP   57
 SOLVING FOR ZETA FOR LAYER     1 ZONE     2
 SOLVING FOR ZETA FOR LAYER     2 ZONE     2
 SOLVING FOR ZETA FOR LAYER     3 ZONE     2
 
 SOLVING FOR HEAD 

 NO OUTPUT CONTROL FOR STRESS PERIOD    2   TIME STEP   58
 SOLVING FOR ZETA FOR LAYER     1 ZONE     2
 SOLVING FOR ZETA FOR LAYER     2 ZONE     2
 SOLVING FOR ZETA FOR LAYER     3 ZONE     2
 
 SOLVING FOR HEAD 

 NO OUTPUT CONTROL FOR STRESS PERIOD    2   TIME STEP   59
 SOLVING FOR ZETA FOR LAYER     1 ZONE     2
 SOLVING FOR ZETA FOR LAYER     2 ZONE     2
 SOLVING FOR ZETA FOR LAYER     3 ZONE     2
 
 SOLVING FOR HEAD 

 NO OUTPUT CONTROL FOR STRESS PERIOD    2   TIME STEP   60
 SOLVING FOR ZETA FOR LAYER     1 ZONE     2
 SOLVING FOR ZETA FOR LAYER     2 ZONE     2
 SOLVING FOR ZETA FOR LAYER     3 ZONE     2
 
 SOLVING FOR HEAD 

 NO OUTPUT CONTROL FOR STRESS PERIOD    2   TIME STEP   61
 SOLVING FOR ZETA FOR LAYER     1 ZONE     2
 SOLVING FOR ZETA FOR LAYER     2 ZONE     2
 SOLVING FOR ZETA FOR LAYER     3 ZONE     2
 
 SOLVING FOR HEAD 

 NO OUTPUT CONTROL FOR STRESS PERIOD    2   TIME STEP   62
 SOLVING FOR ZETA FOR LAYER     1 ZONE     2
 SOLVING FOR ZETA FOR LAYER     2 ZONE     2
 SOLVING FOR ZETA FOR LAYER     3 ZONE     2
 
 SOLVING FOR HEAD 

 NO OUTPUT CONTROL FOR STRESS PERIOD    2   TIME STEP   63
 SOLVING FOR ZETA FOR LAYER     1 ZONE     2
 SOLVING FOR ZETA FOR LAYER     2 ZONE     2
 SOLVING FOR ZETA FOR LAYER     3 ZONE     2
 
 SOLVING FOR HEAD 

 NO OUTPUT CONTROL FOR STRESS PERIOD    2   TIME STEP   64
 SOLVING FOR ZETA FOR LAYER     1 ZONE     2
 SOLVING FOR ZETA FOR LAYER     2 ZONE     2
 SOLVING FOR ZETA FOR LAYER     3 ZONE     2
 
 SOLVING FOR HEAD 

 NO OUTPUT CONTROL FOR STRESS PERIOD    2   TIME STEP   65
 SOLVING FOR ZETA FOR LAYER     1 ZONE     2
 SOLVING FOR ZETA FOR LAYER     2 ZONE     2
 SOLVING FOR ZETA FOR LAYER     3 ZONE     2
 
 SOLVING FOR HEAD 

 NO OUTPUT CONTROL FOR STRESS PERIOD    2   TIME STEP   66
 SOLVING FOR ZETA FOR LAYER     1 ZONE     2
 SOLVING FOR ZETA FOR LAYER     2 ZONE     2
 SOLVING FOR ZETA FOR LAYER     3 ZONE     2
 
 SOLVING FOR HEAD 

 NO OUTPUT CONTROL FOR STRESS PERIOD    2   TIME STEP   67
 SOLVING FOR ZETA FOR LAYER     1 ZONE     2
 SOLVING FOR ZETA FOR LAYER     2 ZONE     2
 SOLVING FOR ZETA FOR LAYER     3 ZONE     2
 
 SOLVING FOR HEAD 

 NO OUTPUT CONTROL FOR STRESS PERIOD    2   TIME STEP   68
 SOLVING FOR ZETA FOR LAYER     1 ZONE     2
 SOLVING FOR ZETA FOR LAYER     2 ZONE     2
 SOLVING FOR ZETA FOR LAYER     3 ZONE     2
 
 SOLVING FOR HEAD 

 NO OUTPUT CONTROL FOR STRESS PERIOD    2   TIME STEP   69
 SOLVING FOR ZETA FOR LAYER     1 ZONE     2
 SOLVING FOR ZETA FOR LAYER     2 ZONE     2
 SOLVING FOR ZETA FOR LAYER     3 ZONE     2
 
 SOLVING FOR HEAD 

 NO OUTPUT CONTROL FOR STRESS PERIOD    2   TIME STEP   70
 SOLVING FOR ZETA FOR LAYER     1 ZONE     2
 SOLVING FOR ZETA FOR LAYER     2 ZONE     2
 SOLVING FOR ZETA FOR LAYER     3 ZONE     2
 
 SOLVING FOR HEAD 

 NO OUTPUT CONTROL FOR STRESS PERIOD    2   TIME STEP   71
 SOLVING FOR ZETA FOR LAYER     1 ZONE     2
 SOLVING FOR ZETA FOR LAYER     2 ZONE     2
 SOLVING FOR ZETA FOR LAYER     3 ZONE     2
 
 SOLVING FOR HEAD 

 NO OUTPUT CONTROL FOR STRESS PERIOD    2   TIME STEP   72
 SOLVING FOR ZETA FOR LAYER     1 ZONE     2
 SOLVING FOR ZETA FOR LAYER     2 ZONE     2
 SOLVING FOR ZETA FOR LAYER     3 ZONE     2
 
 SOLVING FOR HEAD 

 NO OUTPUT CONTROL FOR STRESS PERIOD    2   TIME STEP   73
 SOLVING FOR ZETA FOR LAYER     1 ZONE     2
 SOLVING FOR ZETA FOR LAYER     2 ZONE     2
 SOLVING FOR ZETA FOR LAYER     3 ZONE     2
 
 SOLVING FOR HEAD 

 NO OUTPUT CONTROL FOR STRESS PERIOD    2   TIME STEP   74
 SOLVING FOR ZETA FOR LAYER     1 ZONE     2
 SOLVING FOR ZETA FOR LAYER     2 ZONE     2
 SOLVING FOR ZETA FOR LAYER     3 ZONE     2
 
 SOLVING FOR HEAD 

 NO OUTPUT CONTROL FOR STRESS PERIOD    2   TIME STEP   75
 SOLVING FOR ZETA FOR LAYER     1 ZONE     2
 SOLVING FOR ZETA FOR LAYER     2 ZONE     2
 SOLVING FOR ZETA FOR LAYER     3 ZONE     2
 
 SOLVING FOR HEAD 

 NO OUTPUT CONTROL FOR STRESS PERIOD    2   TIME STEP   76
 SOLVING FOR ZETA FOR LAYER     1 ZONE     2
 SOLVING FOR ZETA FOR LAYER     2 ZONE     2
 SOLVING FOR ZETA FOR LAYER     3 ZONE     2
 
 SOLVING FOR HEAD 

 NO OUTPUT CONTROL FOR STRESS PERIOD    2   TIME STEP   77
 SOLVING FOR ZETA FOR LAYER     1 ZONE     2
 SOLVING FOR ZETA FOR LAYER     2 ZONE     2
 SOLVING FOR ZETA FOR LAYER     3 ZONE     2
 
 SOLVING FOR HEAD 

 NO OUTPUT CONTROL FOR STRESS PERIOD    2   TIME STEP   78
 SOLVING FOR ZETA FOR LAYER     1 ZONE     2
 SOLVING FOR ZETA FOR LAYER     2 ZONE     2
 SOLVING FOR ZETA FOR LAYER     3 ZONE     2
 
 SOLVING FOR HEAD 

 NO OUTPUT CONTROL FOR STRESS PERIOD    2   TIME STEP   79
 SOLVING FOR ZETA FOR LAYER     1 ZONE     2
 SOLVING FOR ZETA FOR LAYER     2 ZONE     2
 SOLVING FOR ZETA FOR LAYER     3 ZONE     2
 
 SOLVING FOR HEAD 

 NO OUTPUT CONTROL FOR STRESS PERIOD    2   TIME STEP   80
 SOLVING FOR ZETA FOR LAYER     1 ZONE     2
 SOLVING FOR ZETA FOR LAYER     2 ZONE     2
 SOLVING FOR ZETA FOR LAYER     3 ZONE     2
 
 SOLVING FOR HEAD 

 NO OUTPUT CONTROL FOR STRESS PERIOD    2   TIME STEP   81
 SOLVING FOR ZETA FOR LAYER     1 ZONE     2
 SOLVING FOR ZETA FOR LAYER     2 ZONE     2
 SOLVING FOR ZETA FOR LAYER     3 ZONE     2
 
 SOLVING FOR HEAD 

 NO OUTPUT CONTROL FOR STRESS PERIOD    2   TIME STEP   82
 SOLVING FOR ZETA FOR LAYER     1 ZONE     2
 SOLVING FOR ZETA FOR LAYER     2 ZONE     2
 SOLVING FOR ZETA FOR LAYER     3 ZONE     2
 
 SOLVING FOR HEAD 

 NO OUTPUT CONTROL FOR STRESS PERIOD    2   TIME STEP   83
 SOLVING FOR ZETA FOR LAYER     1 ZONE     2
 SOLVING FOR ZETA FOR LAYER     2 ZONE     2
 SOLVING FOR ZETA FOR LAYER     3 ZONE     2
 
 SOLVING FOR HEAD 

 NO OUTPUT CONTROL FOR STRESS PERIOD    2   TIME STEP   84
 SOLVING FOR ZETA FOR LAYER     1 ZONE     2
 SOLVING FOR ZETA FOR LAYER     2 ZONE     2
 SOLVING FOR ZETA FOR LAYER     3 ZONE     2
 
 SOLVING FOR HEAD 

 NO OUTPUT CONTROL FOR STRESS PERIOD    2   TIME STEP   85
 SOLVING FOR ZETA FOR LAYER     1 ZONE     2
 SOLVING FOR ZETA FOR LAYER     2 ZONE     2
 SOLVING FOR ZETA FOR LAYER     3 ZONE     2
 
 SOLVING FOR HEAD 

 NO OUTPUT CONTROL FOR STRESS PERIOD    2   TIME STEP   86
 SOLVING FOR ZETA FOR LAYER     1 ZONE     2
 SOLVING FOR ZETA FOR LAYER     2 ZONE     2
 SOLVING FOR ZETA FOR LAYER     3 ZONE     2
 
 SOLVING FOR HEAD 

 NO OUTPUT CONTROL FOR STRESS PERIOD    2   TIME STEP   87
 SOLVING FOR ZETA FOR LAYER     1 ZONE     2
 SOLVING FOR ZETA FOR LAYER     2 ZONE     2
 SOLVING FOR ZETA FOR LAYER     3 ZONE     2
 
 SOLVING FOR HEAD 

 NO OUTPUT CONTROL FOR STRESS PERIOD    2   TIME STEP   88
 SOLVING FOR ZETA FOR LAYER     1 ZONE     2
 SOLVING FOR ZETA FOR LAYER     2 ZONE     2
 SOLVING FOR ZETA FOR LAYER     3 ZONE     2
 
 SOLVING FOR HEAD 

 NO OUTPUT CONTROL FOR STRESS PERIOD    2   TIME STEP   89
 SOLVING FOR ZETA FOR LAYER     1 ZONE     2
 SOLVING FOR ZETA FOR LAYER     2 ZONE     2
 SOLVING FOR ZETA FOR LAYER     3 ZONE     2
 
 SOLVING FOR HEAD 

 NO OUTPUT CONTROL FOR STRESS PERIOD    2   TIME STEP   90
 SOLVING FOR ZETA FOR LAYER     1 ZONE     2
 SOLVING FOR ZETA FOR LAYER     2 ZONE     2
 SOLVING FOR ZETA FOR LAYER     3 ZONE     2
 
 SOLVING FOR HEAD 

 NO OUTPUT CONTROL FOR STRESS PERIOD    2   TIME STEP   91
 SOLVING FOR ZETA FOR LAYER     1 ZONE     2
 SOLVING FOR ZETA FOR LAYER     2 ZONE     2
 SOLVING FOR ZETA FOR LAYER     3 ZONE     2
 
 SOLVING FOR HEAD 

 OUTPUT CONTROL FOR STRESS PERIOD    2   TIME STEP   92
    PRINT BUDGET
    SAVE HEAD FOR ALL LAYERS
 SOLVING FOR ZETA FOR LAYER     1 ZONE     2
 SOLVING FOR ZETA FOR LAYER     2 ZONE     2
 SOLVING FOR ZETA FOR LAYER     3 ZONE     2
 UBUDSV SAVING "      ZETASRF  1" ON UNIT 55 AT TIME STEP 92, STRESS PERIOD    2


                      VOLUMETRIC SWI ZONE BUDGET FOR ENTIRE MODEL
                     AT END OF TIME STEP   92 IN STRESS PERIOD   2
                                      ZONE     1
  -----------------------------------------------------------------------------------

        CUMULATIVE VOLUMES      L**3       RATES FOR THIS TIME STEP      L**3/T
        ------------------                 ------------------------

              IN:                                      IN:
              ---                                      ---
             BOUNDARIES =   418356384.0000            BOUNDARIES =       5.0669E-02
          CONSTANT HEAD =           0.0000         CONSTANT HEAD =           0.0000
            ZONE CHANGE =    13077306.0000           ZONE CHANGE =         715.2084
       ZONE CHG TIP/TOE =   217630688.0000      ZONE CHG TIP/TOE =           4.1726
            ZONE MIXING =     1078061.8750           ZONE MIXING =           0.0000

               TOTAL IN =   650142464.0000              TOTAL IN =         719.4316

             OUT:                                     OUT:
             ----                                     ----
             BOUNDARIES =   271592896.0000            BOUNDARIES =         597.4568
          CONSTANT HEAD =           0.0000         CONSTANT HEAD =           0.0000
            ZONE CHANGE =   230591552.0000           ZONE CHANGE =          36.8311
       ZONE CHG TIP/TOE =      342612.2188      ZONE CHG TIP/TOE =           3.5163
            ZONE MIXING =    61219852.0000           ZONE MIXING =          92.8957

              TOTAL OUT =   563746944.0000             TOTAL OUT =         730.6999

               IN - OUT =    86395520.0000              IN - OUT =         -11.2683

    PERCENT DISCREPANCY =          14.23     PERCENT DISCREPANCY =          -1.55



                      VOLUMETRIC SWI ZONE BUDGET FOR ENTIRE MODEL
                     AT END OF TIME STEP   92 IN STRESS PERIOD   2
                                      ZONE     2
  -----------------------------------------------------------------------------------

        CUMULATIVE VOLUMES      L**3       RATES FOR THIS TIME STEP      L**3/T
        ------------------                 ------------------------

              IN:                                      IN:
              ---                                      ---
             BOUNDARIES =    83240632.0000            BOUNDARIES =         868.6884
          CONSTANT HEAD =           0.0000         CONSTANT HEAD =           0.0000
            ZONE CHANGE =    12926735.0000           ZONE CHANGE =         115.4114
       ZONE CHG TIP/TOE =   141029520.0000      ZONE CHG TIP/TOE =          18.2045
            ZONE MIXING =    61219852.0000           ZONE MIXING =          92.8957

               TOTAL IN =   298416736.0000              TOTAL IN =        1095.2001

             OUT:                                     OUT:
             ----                                     ----
             BOUNDARIES =   230336528.0000            BOUNDARIES =         468.3209
          CONSTANT HEAD =           0.0000         CONSTANT HEAD =           0.0000
            ZONE CHANGE =   153570032.0000           ZONE CHANGE =         612.2770
       ZONE CHG TIP/TOE =      131834.0312      ZONE CHG TIP/TOE =           4.1629
            ZONE MIXING =     1078061.8750           ZONE MIXING =           0.0000

              TOTAL OUT =   385116448.0000             TOTAL OUT =        1084.7607

               IN - OUT =   -86699712.0000              IN - OUT =          10.4393

    PERCENT DISCREPANCY =         -25.37     PERCENT DISCREPANCY =           0.96


 HEAD WILL BE SAVED ON UNIT   51 AT END OF TIME STEP   92, STRESS PERIOD    2
1
  VOLUMETRIC BUDGET FOR ENTIRE MODEL AT END OF TIME STEP   92, STRESS PERIOD   2
  ------------------------------------------------------------------------------

     CUMULATIVE VOLUMES      L**3       RATES FOR THIS TIME STEP      L**3/T
     ------------------                 ------------------------

           IN:                                      IN:
           ---                                      ---
             STORAGE =       77965.6406               STORAGE =         196.3586
       CONSTANT HEAD =           0.0000         CONSTANT HEAD =           0.0000
          SWIADDTOCH =           0.0000            SWIADDTOCH =           0.0000
               WELLS =           0.0000                 WELLS =           0.0000
     HEAD DEP BOUNDS =    73395104.0000       HEAD DEP BOUNDS =         868.7712
            RECHARGE =   428199680.0000              RECHARGE =           0.0000

            TOTAL IN =   501672768.0000              TOTAL IN =        1065.1298

          OUT:                                     OUT:
          ----                                     ----
             STORAGE =         831.5978               STORAGE =           2.9952
       CONSTANT HEAD =           0.0000         CONSTANT HEAD =           0.0000
          SWIADDTOCH =           0.0000            SWIADDTOCH =           0.0000
               WELLS =        9525.6826                 WELLS =         103.5400
     HEAD DEP BOUNDS =   501919808.0000       HEAD DEP BOUNDS =         962.4998
            RECHARGE =           0.0000              RECHARGE =           0.0000

           TOTAL OUT =   501930176.0000             TOTAL OUT =        1069.0349

            IN - OUT =     -257408.0000              IN - OUT =          -3.9052

 PERCENT DISCREPANCY =          -0.05     PERCENT DISCREPANCY =          -0.37






         TIME SUMMARY AT END OF TIME STEP   92 IN STRESS PERIOD    2
                    SECONDS     MINUTES      HOURS       DAYS        YEARS
                    -----------------------------------------------------------
   TIME STEP LENGTH  86400.      1440.0      24.000      1.0000     2.73785E-03
 STRESS PERIOD TIME 7.94880E+06 1.32480E+05  2208.0      92.000     0.25188    
         TOTAL TIME 6.31948E+09 1.05325E+08 1.75541E+06  73142.      200.25    
1
1
                            STRESS PERIOD NO.    3, LENGTH =   273.0000    
                            -----------------------------------------------

                              NUMBER OF TIME STEPS =   273

                               MULTIPLIER FOR DELT =     1.000

                            INITIAL TIME STEP SIZE =   1.000000    

 WELL NO.  LAYER   ROW   COL   STRESS RATE         
 --------------------------------------------------
      1      1     61     33       0.000    
      2      1     59     38       0.000    
      3      2     59     43       0.000    
      4      2     57     43       0.000    
      5      2     54     36       0.000    
      6      2     52     38       0.000    
      7      2     49     48       0.000    
      8      2     45     36       0.000    
      9      2     44     38       0.000    
     10      1     43     40       0.000    
     11      2     43     49       0.000    
     12      2     40     39       0.000    
     13      3     38     43       0.000    
     14      1     37     38       0.000    
     15      2     31     47       0.000    
     16      2     27     41       0.000    

     16 WELLS

 BOUND. NO. LAYER   ROW   COL     STAGE      CONDUCTANCE         
 ----------------------------------------------------------------
      1      1      1      1      0.3710          0.6804E+06
      2      1      1      2      0.3728          0.6804E+06
      3      1      1      3      0.3752          0.6804E+06
      4      1      1      4      0.3788          0.6804E+06
      5      1      1      5      0.3831          0.6804E+06
      6      1      1      6      0.3866          0.6804E+06
      7      1      1      7      0.3899          0.6804E+06
      8      1      1      8      0.3923          0.6804E+06
      9      1      1      9      0.3929          0.6804E+06
     10      1      1     10      0.3920          0.6804E+06
     11      1      1     11      0.3898          0.6804E+06
     12      1      1     12      0.3858          0.6804E+06
     13      1      1     13      0.3804          0.6804E+06
     14      1      1     14      0.3745          0.6804E+06
     15      1      1     15      0.3653          0.6804E+06
     16      1      1     16      0.3536          0.6804E+06
     17      1      1     17      0.3377          0.6804E+06
     18      1      1     18      0.3210          0.6804E+06
     19      1      1     19      0.3060          0.6804E+06
     20      1      1     20      0.2933          0.6804E+06
     21      1      1     21      0.2859          0.6804E+06
     22      1      1     22      0.2825          0.6804E+06
     23      1      1     23      0.2793          0.6804E+06
     24      1      1     24      0.2771          0.6804E+06
     25      1      1     25      0.2757          0.6804E+06
     26      1      1     26      0.2760          0.6804E+06
     27      1      1     27      0.2781          0.6804E+06
     28      1      1     28      0.2828          0.6804E+06
     29      1      1     29      0.2895          0.6804E+06
     30      1      1     30      0.2965          0.6804E+06
     31      1      1     31      0.3052          0.6804E+06
     32      1      1     32      0.3127          0.6804E+06
     33      1      1     33      0.3202          0.6804E+06
     34      1      1     34      0.3261          0.6804E+06
     35      1      1     35      0.3301          0.6804E+06
     36      1      1     36      0.3340          0.6804E+06
     37      1      1     37      0.3365          0.6804E+06
     38      1      1     38      0.3374          0.6804E+06
     39      1      1     39      0.3370          0.6804E+06
     40      1      1     40      0.3368          0.6804E+06
     41      1      1     41      0.3368          0.6804E+06
     42      1      1     42      0.3373          0.6804E+06
     43      1      1     43      0.3383          0.6804E+06
     44      1      1     44      0.3403          0.6804E+06
     45      1      1     45      0.3423          0.6804E+06
     46      1      1     46      0.3432          0.6804E+06
     47      1      1     47      0.3432          0.6804E+06
     48      1      1     48      0.3427          0.6804E+06
     49      1      1     49      0.3409          0.6804E+06
     50      1      1     50      0.3379          0.6804E+06
     51      1      1     51      0.3343          0.6804E+06
     52      1      1     52      0.3286          0.6804E+06
     53      1      1     53      0.3224          0.6804E+06
     54      1      1     54      0.3148          0.6804E+06
     55      1      1     55      0.3072          0.6804E+06
     56      1      1     56      0.3003          0.6804E+06
     57      1      1     57      0.2926          0.6804E+06
     58      1      1     58      0.2852          0.6804E+06
     59      1      1     59      0.2786          0.6804E+06
     60      1      1     60      0.2703          0.6804E+06
     61      1      1     61      0.2632          0.6804E+06
     62      1      1     62      0.2554          0.6804E+06
     63      1      1     63      0.2480          0.6804E+06
     64      1      1     64      0.2423          0.6804E+06
     65      1      1     65      0.2365          0.6804E+06
     66      1      1     66      0.2312          0.6804E+06
     67      1      1     67      0.2269          0.6804E+06
     68      1      1     68      0.2222          0.6804E+06
     69      1      1     69      0.2181          0.6804E+06
     70      1      1     70      0.2135          0.6804E+06
     71      1      1     71      0.2088          0.6804E+06
     72      1      1     72      0.2045          0.6804E+06
     73      1      1     73      0.1995          0.6804E+06
     74      1      1     74      0.1936          0.6804E+06
     75      1      1     75      0.1881          0.6804E+06
     76      1      1     76      0.1818          0.6804E+06
     77      1      1     77      0.1766          0.6804E+06
     78      1      1     78      0.1703          0.6804E+06
     79      1      1     79      0.1635          0.6804E+06
     80      1      1     80      0.1576          0.6804E+06
     81      1      1     81      0.1510          0.6804E+06
     82      1      1     82      0.1439          0.6804E+06
     83      1      1     83      0.1376          0.6804E+06
     84      1      1     84      0.1302          0.6804E+06
     85      1      1     85      0.1231          0.6804E+06
     86      1      1     86      0.1147          0.6804E+06
     87      1      1     87      0.1067          0.6804E+06
     88      1      1     88      0.9976E-01      0.6804E+06
     89      1      1     89      0.9168E-01      0.6804E+06
     90      1      1     90      0.8364E-01      0.6804E+06
     91      1      1     91      0.7626E-01      0.6804E+06
     92      1      1     92      0.6793E-01      0.6804E+06
     93      1      1     93      0.6125E-01      0.6804E+06
     94      1      1     94      0.5478E-01      0.6804E+06
     95      1      1     95      0.4816E-01      0.6804E+06
     96      1      1     96      0.4179E-01      0.6804E+06
     97      1      1     97      0.3279E-01      0.6804E+06
     98      1      1     98      0.2161E-01      0.6804E+06
     99      1      1     99      0.7204E-02      0.6804E+06
    100      1      1    100       0.000          0.6804E+06
    101      1      2      1      0.3913          0.6804E+06
    102      1      2      2      0.3922          0.6804E+06
    103      1      2      3      0.3938          0.6804E+06
    104      1      2      4      0.3965          0.6804E+06
    105      1      2      5      0.3999          0.6804E+06
    106      1      2      6      0.4025          0.6804E+06
    107      1      2      7      0.4047          0.6804E+06
    108      1      2      8      0.4059          0.6804E+06
    109      1      2      9      0.4053          0.6804E+06
    110      1      2     10      0.4027          0.6804E+06
    111      1      2     11      0.3992          0.6804E+06
    112      1      2     12      0.3938          0.6804E+06
    113      1      2     13      0.3871          0.6804E+06
    114      1      2     14      0.3803          0.6804E+06
    115      1      2     15      0.3704          0.6804E+06
    116      1      2     16      0.3595          0.6804E+06
    117      1      2     17      0.3453          0.6804E+06
    118      1      2     18      0.3303          0.6804E+06
    119      1      2     19      0.3173          0.6804E+06
    120      1      2     20      0.3050          0.6804E+06
    121      1      2     21      0.2960          0.6804E+06
    122      1      2     22      0.2899          0.6804E+06
    123      1      2     23      0.2837          0.6804E+06
    124      1      2     24      0.2789          0.6804E+06
    125      1      2     25      0.2743          0.6804E+06
    126      1      2     26      0.2719          0.6804E+06
    127      1      2     27      0.2726          0.6804E+06
    128      1      2     28      0.2766          0.6804E+06
    129      1      2     29      0.2834          0.6804E+06
    130      1      2     30      0.2910          0.6804E+06
    131      1      2     31      0.3009          0.6804E+06
    132      1      2     32      0.3095          0.6804E+06
    133      1      2     33      0.3174          0.6804E+06
    134      1      2     34      0.3222          0.6804E+06
    135      1      2     35      0.3237          0.6804E+06
    136      1      2     36      0.3243          0.6804E+06
    137      1      2     37      0.3245          0.6804E+06
    138      1      2     38      0.3251          0.6804E+06
    139      1      2     39      0.3265          0.6804E+06
    140      1      2     40      0.3272          0.6804E+06
    141      1      2     41      0.3274          0.6804E+06
    142      1      2     42      0.3280          0.6804E+06
    143      1      2     43      0.3294          0.6804E+06
    144      1      2     44      0.3322          0.6804E+06
    145      1      2     45      0.3351          0.6804E+06
    146      1      2     46      0.3370          0.6804E+06
    147      1      2     47      0.3380          0.6804E+06
    148      1      2     48      0.3379          0.6804E+06
    149      1      2     49      0.3359          0.6804E+06
    150      1      2     50      0.3320          0.6804E+06
    151      1      2     51      0.3275          0.6804E+06
    152      1      2     52      0.3212          0.6804E+06
    153      1      2     53      0.3148          0.6804E+06
    154      1      2     54      0.3071          0.6804E+06
    155      1      2     55      0.2993          0.6804E+06
    156      1      2     56      0.2923          0.6804E+06
    157      1      2     57      0.2846          0.6804E+06
    158      1      2     58      0.2772          0.6804E+06
    159      1      2     59      0.2704          0.6804E+06
    160      1      2     60      0.2623          0.6804E+06
    161      1      2     61      0.2555          0.6804E+06
    162      1      2     62      0.2482          0.6804E+06
    163      1      2     63      0.2412          0.6804E+06
    164      1      2     64      0.2355          0.6804E+06
    165      1      2     65      0.2296          0.6804E+06
    166      1      2     66      0.2239          0.6804E+06
    167      1      2     67      0.2193          0.6804E+06
    168      1      2     68      0.2143          0.6804E+06
    169      1      2     69      0.2102          0.6804E+06
    170      1      2     70      0.2056          0.6804E+06
    171      1      2     71      0.2012          0.6804E+06
    172      1      2     72      0.1974          0.6804E+06
    173      1      2     73      0.1926          0.6804E+06
    174      1      2     74      0.1874          0.6804E+06
    175      1      2     75      0.1824          0.6804E+06
    176      1      2     76      0.1762          0.6804E+06
    177      1      2     77      0.1705          0.6804E+06
    178      1      2     78      0.1635          0.6804E+06
    179      1      2     79      0.1561          0.6804E+06
    180      1      2     80      0.1499          0.6804E+06
    181      1      2     81      0.1434          0.6804E+06
    182      1      2     82      0.1360          0.6804E+06
    183      1      2     83      0.1293          0.6804E+06
    184      1      2     84      0.1214          0.6804E+06
    185      1      2     85      0.1141          0.6804E+06
    186      1      2     86      0.1061          0.6804E+06
    187      1      2     87      0.9897E-01      0.6804E+06
    188      1      2     88      0.9295E-01      0.6804E+06
    189      1      2     89      0.8604E-01      0.6804E+06
    190      1      2     90      0.7935E-01      0.6804E+06
    191      1      2     91      0.7276E-01      0.6804E+06
    192      1      2     92      0.6489E-01      0.6804E+06
    193      1      2     93      0.5824E-01      0.6804E+06
    194      1      2     94      0.5107E-01      0.6804E+06
    195      1      2     95      0.4232E-01      0.6804E+06
    196      1      2     96      0.3331E-01      0.6804E+06
    197      1      2     97      0.2064E-01      0.6804E+06
    198      1      2     98      0.8544E-02      0.6804E+06
    199      1      2     99       0.000          0.6804E+06
    200      1      2    100     -0.5911E-01      0.6804E+06
    201      1      3      1      0.4115          0.6804E+06
    202      1      3      2      0.4113          0.6804E+06
    203      1      3      3      0.4120          0.6804E+06
    204      1      3      4      0.4138          0.6804E+06
    205      1      3      5      0.4163          0.6804E+06
    206      1      3      6      0.4181          0.6804E+06
    207      1      3      7      0.4195          0.6804E+06
    208      1      3      8      0.4196          0.6804E+06
    209      1      3      9      0.4177          0.6804E+06
    210      1      3     10      0.4133          0.6804E+06
    211      1      3     11      0.4082          0.6804E+06
    212      1      3     12      0.4012          0.6804E+06
    213      1      3     13      0.3932          0.6804E+06
    214      1      3     14      0.3854          0.6804E+06
    215      1      3     15      0.3752          0.6804E+06
    216      1      3     16      0.3652          0.6804E+06
    217      1      3     17      0.3530          0.6804E+06
    218      1      3     18      0.3404          0.6804E+06
    219      1      3     19      0.3296          0.6804E+06
    220      1      3     20      0.3182          0.6804E+06
    221      1      3     21      0.3077          0.6804E+06
    222      1      3     22      0.2987          0.6804E+06
    223      1      3     23      0.2890          0.6804E+06
    224      1      3     24      0.2810          0.6804E+06
    225      1      3     25      0.2728          0.6804E+06
    226      1      3     26      0.2669          0.6804E+06
    227      1      3     27      0.2660          0.6804E+06
    228      1      3     28      0.2689          0.6804E+06
    229      1      3     29      0.2754          0.6804E+06
    230      1      3     30      0.2834          0.6804E+06
    231      1      3     31      0.2948          0.6804E+06
    232      1      3     32      0.3052          0.6804E+06
    233      1      3     33      0.3141          0.6804E+06
    234      1      3     34      0.3172          0.6804E+06
    235      1      3     35      0.3143          0.6804E+06
    236      1      3     36      0.3098          0.6804E+06
    237      1      3     37      0.3063          0.6804E+06
    238      1      3     38      0.3061          0.6804E+06
    239      1      3     39      0.3091          0.6804E+06
    240      1      3     40      0.3112          0.6804E+06
    241      1      3     41      0.3127          0.6804E+06
    242      1      3     42      0.3144          0.6804E+06
    243      1      3     43      0.3167          0.6804E+06
    244      1      3     44      0.3204          0.6804E+06
    245      1      3     45      0.3245          0.6804E+06
    246      1      3     46      0.3277          0.6804E+06
    247      1      3     47      0.3305          0.6804E+06
    248      1      3     48      0.3315          0.6804E+06
    249      1      3     49      0.3295          0.6804E+06
    250      1      3     50      0.3247          0.6804E+06
    251      1      3     51      0.3192          0.6804E+06
    252      1      3     52      0.3122          0.6804E+06
    253      1      3     53      0.3055          0.6804E+06
    254      1      3     54      0.2977          0.6804E+06
    255      1      3     55      0.2900          0.6804E+06
    256      1      3     56      0.2831          0.6804E+06
    257      1      3     57      0.2759          0.6804E+06
    258      1      3     58      0.2683          0.6804E+06
    259      1      3     59      0.2612          0.6804E+06
    260      1      3     60      0.2535          0.6804E+06
    261      1      3     61      0.2472          0.6804E+06
    262      1      3     62      0.2403          0.6804E+06
    263      1      3     63      0.2336          0.6804E+06
    264      1      3     64      0.2280          0.6804E+06
    265      1      3     65      0.2220          0.6804E+06
    266      1      3     66      0.2162          0.6804E+06
    267      1      3     67      0.2112          0.6804E+06
    268      1      3     68      0.2060          0.6804E+06
    269      1      3     69      0.2019          0.6804E+06
    270      1      3     70      0.1975          0.6804E+06
    271      1      3     71      0.1934          0.6804E+06
    272      1      3     72      0.1897          0.6804E+06
    273      1      3     73      0.1853          0.6804E+06
    274      1      3     74      0.1810          0.6804E+06
    275      1      3     75      0.1767          0.6804E+06
    276      1      3     76      0.1706          0.6804E+06
    277      1      3     77      0.1643          0.6804E+06
    278      1      3     78      0.1565          0.6804E+06
    279      1      3     79      0.1488          0.6804E+06
    280      1      3     80      0.1425          0.6804E+06
    281      1      3     81      0.1357          0.6804E+06
    282      1      3     82      0.1279          0.6804E+06
    283      1      3     83      0.1208          0.6804E+06
    284      1      3     84      0.1125          0.6804E+06
    285      1      3     85      0.1051          0.6804E+06
    286      1      3     86      0.9746E-01      0.6804E+06
    287      1      3     87      0.9132E-01      0.6804E+06
    288      1      3     88      0.8641E-01      0.6804E+06
    289      1      3     89      0.8056E-01      0.6804E+06
    290      1      3     90      0.7421E-01      0.6804E+06
    291      1      3     91      0.6800E-01      0.6804E+06
    292      1      3     92      0.6032E-01      0.6804E+06
    293      1      3     93      0.5337E-01      0.6804E+06
    294      1      3     94      0.4518E-01      0.6804E+06
    295      1      3     95      0.3411E-01      0.6804E+06
    296      1      3     96      0.2197E-01      0.6804E+06
    297      1      3     97      0.8253E-02      0.6804E+06
    298      1      3     98       0.000          0.6804E+06
    299      1      3     99     -0.5216E-01      0.6804E+06
    300      1      3    100     -0.8953E-01      0.6804E+06
    301      1      4      1      0.4282          0.6804E+06
    302      1      4      2      0.4272          0.6804E+06
    303      1      4      3      0.4272          0.6804E+06
    304      1      4      4      0.4282          0.6804E+06
    305      1      4      5      0.4300          0.6804E+06
    306      1      4      6      0.4313          0.6804E+06
    307      1      4      7      0.4321          0.6804E+06
    308      1      4      8      0.4313          0.6804E+06
    309      1      4      9      0.4281          0.6804E+06
    310      1      4     10      0.4220          0.6804E+06
    311      1      4     11      0.4155          0.6804E+06
    312      1      4     12      0.4071          0.6804E+06
    313      1      4     13      0.3978          0.6804E+06
    314      1      4     14      0.3892          0.6804E+06
    315      1      4     15      0.3790          0.6804E+06
    316      1      4     16      0.3698          0.6804E+06
    317      1      4     17      0.3590          0.6804E+06
    318      1      4     18      0.3485          0.6804E+06
    319      1      4     19      0.3396          0.6804E+06
    320      1      4     20      0.3291          0.6804E+06
    321      1      4     21      0.3177          0.6804E+06
    322      1      4     22      0.3063          0.6804E+06
    323      1      4     23      0.2937          0.6804E+06
    324      1      4     24      0.2832          0.6804E+06
    325      1      4     25      0.2722          0.6804E+06
    326      1      4     26      0.2635          0.6804E+06
    327      1      4     27      0.2601          0.6804E+06
    328      1      4     28      0.2609          0.6804E+06
    329      1      4     29      0.2663          0.6804E+06
    330      1      4     30      0.2744          0.6804E+06
    331      1      4     31      0.2869          0.6804E+06
    332      1      4     32      0.2993          0.6804E+06
    333      1      4     33      0.3096          0.6804E+06
    334      1      4     34      0.3110          0.6804E+06
    335      1      4     35      0.3032          0.6804E+06
    336      1      4     36      0.2932          0.6804E+06
    337      1      4     37      0.2859          0.6804E+06
    338      1      4     38      0.2843          0.6804E+06
    339      1      4     39      0.2885          0.6804E+06
    340      1      4     40      0.2922          0.6804E+06
    341      1      4     41      0.2958          0.6804E+06
    342      1      4     42      0.2994          0.6804E+06
    343      1      4     43      0.3028          0.6804E+06
    344      1      4     44      0.3075          0.6804E+06
    345      1      4     45      0.3127          0.6804E+06
    346      1      4     46      0.3173          0.6804E+06
    347      1      4     47      0.3220          0.6804E+06
    348      1      4     48      0.3246          0.6804E+06
    349      1      4     49      0.3225          0.6804E+06
    350      1      4     50      0.3165          0.6804E+06
    351      1      4     51      0.3102          0.6804E+06
    352      1      4     52      0.3029          0.6804E+06
    353      1      4     53      0.2960          0.6804E+06
    354      1      4     54      0.2882          0.6804E+06
    355      1      4     55      0.2807          0.6804E+06
    356      1      4     56      0.2739          0.6804E+06
    357      1      4     57      0.2670          0.6804E+06
    358      1      4     58      0.2597          0.6804E+06
    359      1      4     59      0.2527          0.6804E+06
    360      1      4     60      0.2454          0.6804E+06
    361      1      4     61      0.2396          0.6804E+06
    362      1      4     62      0.2330          0.6804E+06
    363      1      4     63      0.2264          0.6804E+06
    364      1      4     64      0.2209          0.6804E+06
    365      1      4     65      0.2149          0.6804E+06
    366      1      4     66      0.2088          0.6804E+06
    367      1      4     67      0.2037          0.6804E+06
    368      1      4     68      0.1984          0.6804E+06
    369      1      4     69      0.1942          0.6804E+06
    370      1      4     70      0.1899          0.6804E+06
    371      1      4     71      0.1859          0.6804E+06
    372      1      4     72      0.1821          0.6804E+06
    373      1      4     73      0.1782          0.6804E+06
    374      1      4     74      0.1748          0.6804E+06
    375      1      4     75      0.1712          0.6804E+06
    376      1      4     76      0.1655          0.6804E+06
    377      1      4     77      0.1584          0.6804E+06
    378      1      4     78      0.1499          0.6804E+06
    379      1      4     79      0.1419          0.6804E+06
    380      1      4     80      0.1356          0.6804E+06
    381      1      4     81      0.1282          0.6804E+06
    382      1      4     82      0.1203          0.6804E+06
    383      1      4     83      0.1132          0.6804E+06
    384      1      4     84      0.1050          0.6804E+06
    385      1      4     85      0.9767E-01      0.6804E+06
    386      1      4     86      0.9029E-01      0.6804E+06
    387      1      4     87      0.8503E-01      0.6804E+06
    388      1      4     88      0.8086E-01      0.6804E+06
    389      1      4     89      0.7507E-01      0.6804E+06
    390      1      4     90      0.6880E-01      0.6804E+06
    391      1      4     91      0.6320E-01      0.6804E+06
    392      1      4     92      0.5551E-01      0.6804E+06
    393      1      4     93      0.4725E-01      0.6804E+06
    394      1      4     94      0.3691E-01      0.6804E+06
    395      1      4     95      0.2342E-01      0.6804E+06
    396      1      4     96      0.1036E-01      0.6804E+06
    397      1      4     97       0.000          0.6804E+06
    398      1      4     98     -0.4253E-01      0.6804E+06
    399      1      4     99     -0.8103E-01      0.6804E+06
    400      1      4    100     -0.1109          0.6804E+06
    401      1      5      1      0.4453          0.6804E+06
    402      1      5      2      0.4436          0.6804E+06
    403      1      5      3      0.4430          0.6804E+06
    404      1      5      4      0.4434          0.6804E+06
    405      1      5      5      0.4446          0.6804E+06
    406      1      5      6      0.4452          0.6804E+06
    407      1      5      7      0.4452          0.6804E+06
    408      1      5      8      0.4432          0.6804E+06
    409      1      5      9      0.4387          0.6804E+06
    410      1      5     10      0.4308          0.6804E+06
    411      1      5     11      0.4229          0.6804E+06
    412      1      5     12      0.4129          0.6804E+06
    413      1      5     13      0.4023          0.6804E+06
    414      1      5     14      0.3928          0.6804E+06
    415      1      5     15      0.3826          0.6804E+06
    416      1      5     16      0.3740          0.6804E+06
    417      1      5     17      0.3645          0.6804E+06
    418      1      5     18      0.3556          0.6804E+06
    419      1      5     19      0.3482          0.6804E+06
    420      1      5     20      0.3386          0.6804E+06
    421      1      5     21      0.3264          0.6804E+06
    422      1      5     22      0.3132          0.6804E+06
    423      1      5     23      0.2982          0.6804E+06
    424      1      5     24      0.2856          0.6804E+06
    425      1      5     25      0.2722          0.6804E+06
    426      1      5     26      0.2606          0.6804E+06
    427      1      5     27      0.2535          0.6804E+06
    428      1      5     28      0.2501          0.6804E+06
    429      1      5     29      0.2527          0.6804E+06
    430      1      5     30      0.2603          0.6804E+06
    431      1      5     31      0.2733          0.6804E+06
    432      1      5     32      0.2867          0.6804E+06
    433      1      5     33      0.2980          0.6804E+06
    434      1      5     34      0.2977          0.6804E+06
    435      1      5     35      0.2846          0.6804E+06
    436      1      5     36      0.2692          0.6804E+06
    437      1      5     37      0.2578          0.6804E+06
    438      1      5     38      0.2544          0.6804E+06
    439      1      5     39      0.2603          0.6804E+06
    440      1      5     40      0.2662          0.6804E+06
    441      1      5     41      0.2728          0.6804E+06
    442      1      5     42      0.2792          0.6804E+06
    443      1      5     43      0.2844          0.6804E+06
    444      1      5     44      0.2903          0.6804E+06
    445      1      5     45      0.2966          0.6804E+06
    446      1      5     46      0.3023          0.6804E+06
    447      1      5     47      0.3086          0.6804E+06
    448      1      5     48      0.3128          0.6804E+06
    449      1      5     49      0.3109          0.6804E+06
    450      1      5     50      0.3040          0.6804E+06
    451      1      5     51      0.2975          0.6804E+06
    452      1      5     52      0.2902          0.6804E+06
    453      1      5     53      0.2835          0.6804E+06
    454      1      5     54      0.2760          0.6804E+06
    455      1      5     55      0.2686          0.6804E+06
    456      1      5     56      0.2622          0.6804E+06
    457      1      5     57      0.2559          0.6804E+06
    458      1      5     58      0.2489          0.6804E+06
    459      1      5     59      0.2421          0.6804E+06
    460      1      5     60      0.2355          0.6804E+06
    461      1      5     61      0.2301          0.6804E+06
    462      1      5     62      0.2240          0.6804E+06
    463      1      5     63      0.2177          0.6804E+06
    464      1      5     64      0.2123          0.6804E+06
    465      1      5     65      0.2062          0.6804E+06
    466      1      5     66      0.1997          0.6804E+06
    467      1      5     67      0.1943          0.6804E+06
    468      1      5     68      0.1890          0.6804E+06
    469      1      5     69      0.1849          0.6804E+06
    470      1      5     70      0.1802          0.6804E+06
    471      1      5     71      0.1760          0.6804E+06
    472      1      5     72      0.1725          0.6804E+06
    473      1      5     73      0.1692          0.6804E+06
    474      1      5     74      0.1664          0.6804E+06
    475      1      5     75      0.1635          0.6804E+06
    476      1      5     76      0.1581          0.6804E+06
    477      1      5     77      0.1502          0.6804E+06
    478      1      5     78      0.1412          0.6804E+06
    479      1      5     79      0.1330          0.6804E+06
    480      1      5     80      0.1265          0.6804E+06
    481      1      5     81      0.1188          0.6804E+06
    482      1      5     82      0.1113          0.6804E+06
    483      1      5     83      0.1048          0.6804E+06
    484      1      5     84      0.9716E-01      0.6804E+06
    485      1      5     85      0.9037E-01      0.6804E+06
    486      1      5     86      0.8347E-01      0.6804E+06
    487      1      5     87      0.7887E-01      0.6804E+06
    488      1      5     88      0.7524E-01      0.6804E+06
    489      1      5     89      0.6925E-01      0.6804E+06
    490      1      5     90      0.6233E-01      0.6804E+06
    491      1      5     91      0.5570E-01      0.6804E+06
    492      1      5     92      0.4648E-01      0.6804E+06
    493      1      5     93      0.3665E-01      0.6804E+06
    494      1      5     94      0.2376E-01      0.6804E+06
    495      1      5     95      0.8694E-02      0.6804E+06
    496      1      5     96       0.000          0.6804E+06
    497      1      5     97     -0.4517E-01      0.6804E+06
    498      1      5     98     -0.7794E-01      0.6804E+06
    499      1      5     99     -0.1048          0.6804E+06
    500      1      5    100     -0.1273          0.6804E+06
    501      1      6      1      0.4592          0.6804E+06
    502      1      6      2      0.4575          0.6804E+06
    503      1      6      3      0.4568          0.6804E+06
    504      1      6      4      0.4569          0.6804E+06
    505      1      6      5      0.4576          0.6804E+06
    506      1      6      6      0.4576          0.6804E+06
    507      1      6      7      0.4564          0.6804E+06
    508      1      6      8      0.4529          0.6804E+06
    509      1      6      9      0.4471          0.6804E+06
    510      1      6     10      0.4379          0.6804E+06
    511      1      6     11      0.4288          0.6804E+06
    512      1      6     12      0.4175          0.6804E+06
    513      1      6     13      0.4057          0.6804E+06
    514      1      6     14      0.3954          0.6804E+06
    515      1      6     15      0.3848          0.6804E+06
    516      1      6     16      0.3764          0.6804E+06
    517      1      6     17      0.3675          0.6804E+06
    518      1      6     18      0.3596          0.6804E+06
    519      1      6     19      0.3529          0.6804E+06
    520      1      6     20      0.3437          0.6804E+06
    521      1      6     21      0.3313          0.6804E+06
    522      1      6     22      0.3174          0.6804E+06
    523      1      6     23      0.3012          0.6804E+06
    524      1      6     24      0.2873          0.6804E+06
    525      1      6     25      0.2721          0.6804E+06
    526      1      6     26      0.2579          0.6804E+06
    527      1      6     27      0.2468          0.6804E+06
    528      1      6     28      0.2375          0.6804E+06
    529      1      6     29      0.2358          0.6804E+06
    530      1      6     30      0.2433          0.6804E+06
    531      1      6     31      0.2552          0.6804E+06
    532      1      6     32      0.2661          0.6804E+06
    533      1      6     33      0.2736          0.6804E+06
    534      1      6     34      0.2703          0.6804E+06
    535      1      6     35      0.2579          0.6804E+06
    536      1      6     36      0.2425          0.6804E+06
    537      1      6     37      0.2308          0.6804E+06
    538      1      6     38      0.2276          0.6804E+06
    539      1      6     39      0.2336          0.6804E+06
    540      1      6     40      0.2408          0.6804E+06
    541      1      6     41      0.2494          0.6804E+06
    542      1      6     42      0.2578          0.6804E+06
    543      1      6     43      0.2642          0.6804E+06
    544      1      6     44      0.2710          0.6804E+06
    545      1      6     45      0.2777          0.6804E+06
    546      1      6     46      0.2835          0.6804E+06
    547      1      6     47      0.2896          0.6804E+06
    548      1      6     48      0.2936          0.6804E+06
    549      1      6     49      0.2927          0.6804E+06
    550      1      6     50      0.2871          0.6804E+06
    551      1      6     51      0.2816          0.6804E+06
    552      1      6     52      0.2751          0.6804E+06
    553      1      6     53      0.2692          0.6804E+06
    554      1      6     54      0.2623          0.6804E+06
    555      1      6     55      0.2554          0.6804E+06
    556      1      6     56      0.2499          0.6804E+06
    557      1      6     57      0.2436          0.6804E+06
    558      1      6     58      0.2368          0.6804E+06
    559      1      6     59      0.2306          0.6804E+06
    560      1      6     60      0.2248          0.6804E+06
    561      1      6     61      0.2198          0.6804E+06
    562      1      6     62      0.2142          0.6804E+06
    563      1      6     63      0.2083          0.6804E+06
    564      1      6     64      0.2030          0.6804E+06
    565      1      6     65      0.1966          0.6804E+06
    566      1      6     66      0.1899          0.6804E+06
    567      1      6     67      0.1844          0.6804E+06
    568      1      6     68      0.1791          0.6804E+06
    569      1      6     69      0.1746          0.6804E+06
    570      1      6     70      0.1696          0.6804E+06
    571      1      6     71      0.1653          0.6804E+06
    572      1      6     72      0.1621          0.6804E+06
    573      1      6     73      0.1586          0.6804E+06
    574      1      6     74      0.1553          0.6804E+06
    575      1      6     75      0.1518          0.6804E+06
    576      1      6     76      0.1462          0.6804E+06
    577      1      6     77      0.1390          0.6804E+06
    578      1      6     78      0.1307          0.6804E+06
    579      1      6     79      0.1224          0.6804E+06
    580      1      6     80      0.1156          0.6804E+06
    581      1      6     81      0.1086          0.6804E+06
    582      1      6     82      0.1021          0.6804E+06
    583      1      6     83      0.9642E-01      0.6804E+06
    584      1      6     84      0.8988E-01      0.6804E+06
    585      1      6     85      0.8392E-01      0.6804E+06
    586      1      6     86      0.7780E-01      0.6804E+06
    587      1      6     87      0.7317E-01      0.6804E+06
    588      1      6     88      0.6907E-01      0.6804E+06
    589      1      6     89      0.6223E-01      0.6804E+06
    590      1      6     90      0.5410E-01      0.6804E+06
    591      1      6     91      0.4560E-01      0.6804E+06
    592      1      6     92      0.3384E-01      0.6804E+06
    593      1      6     93      0.2190E-01      0.6804E+06
    594      1      6     94      0.7307E-02      0.6804E+06
    595      1      6     95       0.000          0.6804E+06
    596      1      6     96     -0.4403E-01      0.6804E+06
    597      1      6     97     -0.7934E-01      0.6804E+06
    598      1      6     98     -0.1005          0.6804E+06
    599      1      6     99     -0.1220          0.6804E+06
    600      1      6    100     -0.1407          0.6804E+06
    601      1      7      1      0.4692          0.6804E+06
    602      1      7      2      0.4678          0.6804E+06
    603      1      7      3      0.4673          0.6804E+06
    604      1      7      4      0.4673          0.6804E+06
    605      1      7      5      0.4678          0.6804E+06
    606      1      7      6      0.4675          0.6804E+06
    607      1      7      7      0.4654          0.6804E+06
    608      1      7      8      0.4607          0.6804E+06
    609      1      7      9      0.4535          0.6804E+06
    610      1      7     10      0.4428          0.6804E+06
    611      1      7     11      0.4324          0.6804E+06
    612      1      7     12      0.4200          0.6804E+06
    613      1      7     13      0.4075          0.6804E+06
    614      1      7     14      0.3967          0.6804E+06
    615      1      7     15      0.3853          0.6804E+06
    616      1      7     16      0.3763          0.6804E+06
    617      1      7     17      0.3674          0.6804E+06
    618      1      7     18      0.3599          0.6804E+06
    619      1      7     19      0.3536          0.6804E+06
    620      1      7     20      0.3446          0.6804E+06
    621      1      7     21      0.3322          0.6804E+06
    622      1      7     22      0.3185          0.6804E+06
    623      1      7     23      0.3020          0.6804E+06
    624      1      7     24      0.2876          0.6804E+06
    625      1      7     25      0.2716          0.6804E+06
    626      1      7     26      0.2556          0.6804E+06
    627      1      7     27      0.2417          0.6804E+06
    628      1      7     28      0.2279          0.6804E+06
    629      1      7     29      0.2224          0.6804E+06
    630      1      7     30      0.2290          0.6804E+06
    631      1      7     31      0.2387          0.6804E+06
    632      1      7     32      0.2458          0.6804E+06
    633      1      7     33      0.2490          0.6804E+06
    634      1      7     34      0.2435          0.6804E+06
    635      1      7     35      0.2324          0.6804E+06
    636      1      7     36      0.2182          0.6804E+06
    637      1      7     37      0.2076          0.6804E+06
    638      1      7     38      0.2055          0.6804E+06
    639      1      7     39      0.2120          0.6804E+06
    640      1      7     40      0.2202          0.6804E+06
    641      1      7     41      0.2302          0.6804E+06
    642      1      7     42      0.2396          0.6804E+06
    643      1      7     43      0.2465          0.6804E+06
    644      1      7     44      0.2532          0.6804E+06
    645      1      7     45      0.2596          0.6804E+06
    646      1      7     46      0.2646          0.6804E+06
    647      1      7     47      0.2694          0.6804E+06
    648      1      7     48      0.2724          0.6804E+06
    649      1      7     49      0.2725          0.6804E+06
    650      1      7     50      0.2693          0.6804E+06
    651      1      7     51      0.2655          0.6804E+06
    652      1      7     52      0.2603          0.6804E+06
    653      1      7     53      0.2552          0.6804E+06
    654      1      7     54      0.2492          0.6804E+06
    655      1      7     55      0.2433          0.6804E+06
    656      1      7     56      0.2387          0.6804E+06
    657      1      7     57      0.2320          0.6804E+06
    658      1      7     58      0.2252          0.6804E+06
    659      1      7     59      0.2201          0.6804E+06
    660      1      7     60      0.2147          0.6804E+06
    661      1      7     61      0.2102          0.6804E+06
    662      1      7     62      0.2050          0.6804E+06
    663      1      7     63      0.1995          0.6804E+06
    664      1      7     64      0.1944          0.6804E+06
    665      1      7     65      0.1876          0.6804E+06
    666      1      7     66      0.1807          0.6804E+06
    667      1      7     67      0.1752          0.6804E+06
    668      1      7     68      0.1696          0.6804E+06
    669      1      7     69      0.1648          0.6804E+06
    670      1      7     70      0.1599          0.6804E+06
    671      1      7     71      0.1556          0.6804E+06
    672      1      7     72      0.1519          0.6804E+06
    673      1      7     73      0.1477          0.6804E+06
    674      1      7     74      0.1436          0.6804E+06
    675      1      7     75      0.1396          0.6804E+06
    676      1      7     76      0.1340          0.6804E+06
    677      1      7     77      0.1278          0.6804E+06
    678      1      7     78      0.1201          0.6804E+06
    679      1      7     79      0.1119          0.6804E+06
    680      1      7     80      0.1052          0.6804E+06
    681      1      7     81      0.9924E-01      0.6804E+06
    682      1      7     82      0.9380E-01      0.6804E+06
    683      1      7     83      0.8900E-01      0.6804E+06
    684      1      7     84      0.8319E-01      0.6804E+06
    685      1      7     85      0.7770E-01      0.6804E+06
    686      1      7     86      0.7259E-01      0.6804E+06
    687      1      7     87      0.6745E-01      0.6804E+06
    688      1      7     88      0.6189E-01      0.6804E+06
    689      1      7     89      0.5383E-01      0.6804E+06
    690      1      7     90      0.4454E-01      0.6804E+06
    691      1      7     91      0.3432E-01      0.6804E+06
    692      1      7     92      0.1993E-01      0.6804E+06
    693      1      7     93      0.6895E-02      0.6804E+06
    694      1      7     94       0.000          0.6804E+06
    695      1      7     95       0.000          0.6804E+06
    696      1      7     96     -0.7501E-01      0.6804E+06
    697      1      7     97     -0.9975E-01      0.6804E+06
    698      1      7     98     -0.1192          0.6804E+06
    699      1      7     99     -0.1401          0.6804E+06
    700      1      7    100     -0.1727          0.6804E+06
    701      1      8      1      0.4782          0.6804E+06
    702      1      8      2      0.4776          0.6804E+06
    703      1      8      3      0.4773          0.6804E+06
    704      1      8      4      0.4775          0.6804E+06
    705      1      8      5      0.4779          0.6804E+06
    706      1      8      6      0.4775          0.6804E+06
    707      1      8      7      0.4750          0.6804E+06
    708      1      8      8      0.4691          0.6804E+06
    709      1      8      9      0.4599          0.6804E+06
    710      1      8     10      0.4463          0.6804E+06
    711      1      8     11      0.4339          0.6804E+06
    712      1      8     12      0.4201          0.6804E+06
    713      1      8     13      0.4072          0.6804E+06
    714      1      8     14      0.3957          0.6804E+06
    715      1      8     15      0.3828          0.6804E+06
    716      1      8     16      0.3726          0.6804E+06
    717      1      8     17      0.3634          0.6804E+06
    718      1      8     18      0.3565          0.6804E+06
    719      1      8     19      0.3515          0.6804E+06
    720      1      8     20      0.3437          0.6804E+06
    721      1      8     21      0.3314          0.6804E+06
    722      1      8     22      0.3171          0.6804E+06
    723      1      8     23      0.3002          0.6804E+06
    724      1      8     24      0.2859          0.6804E+06
    725      1      8     25      0.2702          0.6804E+06
    726      1      8     26      0.2537          0.6804E+06
    727      1      8     27      0.2385          0.6804E+06
    728      1      8     28      0.2238          0.6804E+06
    729      1      8     29      0.2161          0.6804E+06
    730      1      8     30      0.2177          0.6804E+06
    731      1      8     31      0.2223          0.6804E+06
    732      1      8     32      0.2251          0.6804E+06
    733      1      8     33      0.2242          0.6804E+06
    734      1      8     34      0.2165          0.6804E+06
    735      1      8     35      0.2050          0.6804E+06
    736      1      8     36      0.1907          0.6804E+06
    737      1      8     37      0.1806          0.6804E+06
    738      1      8     38      0.1804          0.6804E+06
    739      1      8     39      0.1894          0.6804E+06
    740      1      8     40      0.1993          0.6804E+06
    741      1      8     41      0.2107          0.6804E+06
    742      1      8     42      0.2206          0.6804E+06
    743      1      8     43      0.2273          0.6804E+06
    744      1      8     44      0.2332          0.6804E+06
    745      1      8     45      0.2384          0.6804E+06
    746      1      8     46      0.2423          0.6804E+06
    747      1      8     47      0.2454          0.6804E+06
    748      1      8     48      0.2477          0.6804E+06
    749      1      8     49      0.2489          0.6804E+06
    750      1      8     50      0.2478          0.6804E+06
    751      1      8     51      0.2458          0.6804E+06
    752      1      8     52      0.2425          0.6804E+06
    753      1      8     53      0.2386          0.6804E+06
    754      1      8     54      0.2335          0.6804E+06
    755      1      8     55      0.2283          0.6804E+06
    756      1      8     56      0.2247          0.6804E+06
    757      1      8     57      0.2183          0.6804E+06
    758      1      8     58      0.2117          0.6804E+06
    759      1      8     59      0.2076          0.6804E+06
    760      1      8     60      0.2026          0.6804E+06
    761      1      8     61      0.1985          0.6804E+06
    762      1      8     62      0.1937          0.6804E+06
    763      1      8     63      0.1886          0.6804E+06
    764      1      8     64      0.1836          0.6804E+06
    765      1      8     65      0.1765          0.6804E+06
    766      1      8     66      0.1693          0.6804E+06
    767      1      8     67      0.1637          0.6804E+06
    768      1      8     68      0.1579          0.6804E+06
    769      1      8     69      0.1530          0.6804E+06
    770      1      8     70      0.1482          0.6804E+06
    771      1      8     71      0.1438          0.6804E+06
    772      1      8     72      0.1393          0.6804E+06
    773      1      8     73      0.1341          0.6804E+06
    774      1      8     74      0.1293          0.6804E+06
    775      1      8     75      0.1250          0.6804E+06
    776      1      8     76      0.1197          0.6804E+06
    777      1      8     77      0.1147          0.6804E+06
    778      1      8     78      0.1079          0.6804E+06
    779      1      8     79      0.1000          0.6804E+06
    780      1      8     80      0.9346E-01      0.6804E+06
    781      1      8     81      0.8885E-01      0.6804E+06
    782      1      8     82      0.8443E-01      0.6804E+06
    783      1      8     83      0.8025E-01      0.6804E+06
    784      1      8     84      0.7495E-01      0.6804E+06
    785      1      8     85      0.6975E-01      0.6804E+06
    786      1      8     86      0.6418E-01      0.6804E+06
    787      1      8     87      0.5803E-01      0.6804E+06
    788      1      8     88      0.5140E-01      0.6804E+06
    789      1      8     89      0.4222E-01      0.6804E+06
    790      1      8     90      0.3136E-01      0.6804E+06
    791      1      8     91      0.1844E-01      0.6804E+06
    792      1      8     92      0.1865E-02      0.6804E+06
    793      1      8     93       0.000          0.6804E+06
    794      1      8     94       0.000          0.6804E+06
    795      1      8     95     -0.8038E-01      0.6804E+06
    796      1      8     96     -0.1007          0.6804E+06
    797      1      8     97     -0.1204          0.6804E+06
    798      1      8     98     -0.1363          0.6804E+06
    799      1      8     99     -0.1683          0.6804E+06
    800      1      8    100     -0.2581          0.6804E+06
    801      1      9      1      0.4846          0.6804E+06
    802      1      9      2      0.4845          0.6804E+06
    803      1      9      3      0.4845          0.6804E+06
    804      1      9      4      0.4848          0.6804E+06
    805      1      9      5      0.4851          0.6804E+06
    806      1      9      6      0.4846          0.6804E+06
    807      1      9      7      0.4824          0.6804E+06
    808      1      9      8      0.4759          0.6804E+06
    809      1      9      9      0.4639          0.6804E+06
    810      1      9     10      0.4469          0.6804E+06
    811      1      9     11      0.4321          0.6804E+06
    812      1      9     12      0.4168          0.6804E+06
    813      1      9     13      0.4038          0.6804E+06
    814      1      9     14      0.3913          0.6804E+06
    815      1      9     15      0.3767          0.6804E+06
    816      1      9     16      0.3652          0.6804E+06
    817      1      9     17      0.3556          0.6804E+06
    818      1      9     18      0.3493          0.6804E+06
    819      1      9     19      0.3456          0.6804E+06
    820      1      9     20      0.3394          0.6804E+06
    821      1      9     21      0.3271          0.6804E+06
    822      1      9     22      0.3120          0.6804E+06
    823      1      9     23      0.2950          0.6804E+06
    824      1      9     24      0.2811          0.6804E+06
    825      1      9     25      0.2665          0.6804E+06
    826      1      9     26      0.2508          0.6804E+06
    827      1      9     27      0.2357          0.6804E+06
    828      1      9     28      0.2211          0.6804E+06
    829      1      9     29      0.2124          0.6804E+06
    830      1      9     30      0.2106          0.6804E+06
    831      1      9     31      0.2111          0.6804E+06
    832      1      9     32      0.2110          0.6804E+06
    833      1      9     33      0.2077          0.6804E+06
    834      1      9     34      0.1986          0.6804E+06
    835      1      9     35      0.1858          0.6804E+06
    836      1      9     36      0.1688          0.6804E+06
    837      1      9     37      0.1574          0.6804E+06
    838      1      9     38      0.1597          0.6804E+06
    839      1      9     39      0.1728          0.6804E+06
    840      1      9     40      0.1848          0.6804E+06
    841      1      9     41      0.1968          0.6804E+06
    842      1      9     42      0.2062          0.6804E+06
    843      1      9     43      0.2122          0.6804E+06
    844      1      9     44      0.2168          0.6804E+06
    845      1      9     45      0.2205          0.6804E+06
    846      1      9     46      0.2230          0.6804E+06
    847      1      9     47      0.2249          0.6804E+06
    848      1      9     48      0.2270          0.6804E+06
    849      1      9     49      0.2288          0.6804E+06
    850      1      9     50      0.2291          0.6804E+06
    851      1      9     51      0.2283          0.6804E+06
    852      1      9     52      0.2264          0.6804E+06
    853      1      9     53      0.2234          0.6804E+06
    854      1      9     54      0.2192          0.6804E+06
    855      1      9     55      0.2146          0.6804E+06
    856      1      9     56      0.2109          0.6804E+06
    857      1      9     57      0.2055          0.6804E+06
    858      1      9     58      0.2002          0.6804E+06
    859      1      9     59      0.1961          0.6804E+06
    860      1      9     60      0.1912          0.6804E+06
    861      1      9     61      0.1874          0.6804E+06
    862      1      9     62      0.1830          0.6804E+06
    863      1      9     63      0.1778          0.6804E+06
    864      1      9     64      0.1726          0.6804E+06
    865      1      9     65      0.1657          0.6804E+06
    866      1      9     66      0.1583          0.6804E+06
    867      1      9     67      0.1525          0.6804E+06
    868      1      9     68      0.1473          0.6804E+06
    869      1      9     69      0.1425          0.6804E+06
    870      1      9     70      0.1372          0.6804E+06
    871      1      9     71      0.1322          0.6804E+06
    872      1      9     72      0.1275          0.6804E+06
    873      1      9     73      0.1217          0.6804E+06
    874      1      9     74      0.1164          0.6804E+06
    875      1      9     75      0.1121          0.6804E+06
    876      1      9     76      0.1077          0.6804E+06
    877      1      9     77      0.1036          0.6804E+06
    878      1      9     78      0.9777E-01      0.6804E+06
    879      1      9     79      0.9066E-01      0.6804E+06
    880      1      9     80      0.8461E-01      0.6804E+06
    881      1      9     81      0.8050E-01      0.6804E+06
    882      1      9     82      0.7650E-01      0.6804E+06
    883      1      9     83      0.7250E-01      0.6804E+06
    884      1      9     84      0.6717E-01      0.6804E+06
    885      1      9     85      0.6218E-01      0.6804E+06
    886      1      9     86      0.5563E-01      0.6804E+06
    887      1      9     87      0.4796E-01      0.6804E+06
    888      1      9     88      0.3998E-01      0.6804E+06
    889      1      9     89      0.2944E-01      0.6804E+06
    890      1      9     90      0.1802E-01      0.6804E+06
    891      1      9     91      0.3275E-02      0.6804E+06
    892      1      9     92       0.000          0.6804E+06
    893      1      9     93       0.000          0.6804E+06
    894      1      9     94     -0.7698E-01      0.6804E+06
    895      1      9     95     -0.1038          0.6804E+06
    896      1      9     96     -0.1242          0.6804E+06
    897      1      9     97     -0.1357          0.6804E+06
    898      1      9     98     -0.1550          0.6804E+06
    899      1      9     99     -0.2520          0.6804E+06
    900      1      9    100     -0.2207          0.6804E+06
    901      1     10      1      0.4910          0.6804E+06
    902      1     10      2      0.4909          0.6804E+06
    903      1     10      3      0.4909          0.6804E+06
    904      1     10      4      0.4908          0.6804E+06
    905      1     10      5      0.4905          0.6804E+06
    906      1     10      6      0.4898          0.6804E+06
    907      1     10      7      0.4881          0.6804E+06
    908      1     10      8      0.4815          0.6804E+06
    909      1     10      9      0.4647          0.6804E+06
    910      1     10     10      0.4426          0.6804E+06
    911      1     10     11      0.4242          0.6804E+06
    912      1     10     12      0.4065          0.6804E+06
    913      1     10     13      0.3934          0.6804E+06
    914      1     10     14      0.3794          0.6804E+06
    915      1     10     15      0.3629          0.6804E+06
    916      1     10     16      0.3505          0.6804E+06
    917      1     10     17      0.3411          0.6804E+06
    918      1     10     18      0.3353          0.6804E+06
    919      1     10     19      0.3326          0.6804E+06
    920      1     10     20      0.3275          0.6804E+06
    921      1     10     21      0.3154          0.6804E+06
    922      1     10     22      0.3006          0.6804E+06
    923      1     10     23      0.2842          0.6804E+06
    924      1     10     24      0.2709          0.6804E+06
    925      1     10     25      0.2572          0.6804E+06
    926      1     10     26      0.2427          0.6804E+06
    927      1     10     27      0.2289          0.6804E+06
    928      1     10     28      0.2155          0.6804E+06
    929      1     10     29      0.2067          0.6804E+06
    930      1     10     30      0.2028          0.6804E+06
    931      1     10     31      0.2007          0.6804E+06
    932      1     10     32      0.1990          0.6804E+06
    933      1     10     33      0.1952          0.6804E+06
    934      1     10     34      0.1867          0.6804E+06
    935      1     10     35      0.1746          0.6804E+06
    936      1     10     36      0.1550          0.6804E+06
    937      1     10     37      0.1413          0.6804E+06
    938      1     10     38      0.1471          0.6804E+06
    939      1     10     39      0.1633          0.6804E+06
    940      1     10     40      0.1758          0.6804E+06
    941      1     10     41      0.1863          0.6804E+06
    942      1     10     42      0.1935          0.6804E+06
    943      1     10     43      0.1976          0.6804E+06
    944      1     10     44      0.2002          0.6804E+06
    945      1     10     45      0.2017          0.6804E+06
    946      1     10     46      0.2024          0.6804E+06
    947      1     10     47      0.2028          0.6804E+06
    948      1     10     48      0.2048          0.6804E+06
    949      1     10     49      0.2073          0.6804E+06
    950      1     10     50      0.2087          0.6804E+06
    951      1     10     51      0.2090          0.6804E+06
    952      1     10     52      0.2079          0.6804E+06
    953      1     10     53      0.2058          0.6804E+06
    954      1     10     54      0.2026          0.6804E+06
    955      1     10     55      0.1986          0.6804E+06
    956      1     10     56      0.1948          0.6804E+06
    957      1     10     57      0.1904          0.6804E+06
    958      1     10     58      0.1862          0.6804E+06
    959      1     10     59      0.1821          0.6804E+06
    960      1     10     60      0.1775          0.6804E+06
    961      1     10     61      0.1740          0.6804E+06
    962      1     10     62      0.1699          0.6804E+06
    963      1     10     63      0.1649          0.6804E+06
    964      1     10     64      0.1595          0.6804E+06
    965      1     10     65      0.1526          0.6804E+06
    966      1     10     66      0.1451          0.6804E+06
    967      1     10     67      0.1389          0.6804E+06
    968      1     10     68      0.1335          0.6804E+06
    969      1     10     69      0.1289          0.6804E+06
    970      1     10     70      0.1239          0.6804E+06
    971      1     10     71      0.1190          0.6804E+06
    972      1     10     72      0.1141          0.6804E+06
    973      1     10     73      0.1077          0.6804E+06
    974      1     10     74      0.1018          0.6804E+06
    975      1     10     75      0.9769E-01      0.6804E+06
    976      1     10     76      0.9470E-01      0.6804E+06
    977      1     10     77      0.9187E-01      0.6804E+06
    978      1     10     78      0.8740E-01      0.6804E+06
    979      1     10     79      0.8168E-01      0.6804E+06
    980      1     10     80      0.7663E-01      0.6804E+06
    981      1     10     81      0.7193E-01      0.6804E+06
    982      1     10     82      0.6758E-01      0.6804E+06
    983      1     10     83      0.6340E-01      0.6804E+06
    984      1     10     84      0.5770E-01      0.6804E+06
    985      1     10     85      0.5233E-01      0.6804E+06
    986      1     10     86      0.4414E-01      0.6804E+06
    987      1     10     87      0.3412E-01      0.6804E+06
    988      1     10     88      0.2380E-01      0.6804E+06
    989      1     10     89      0.1137E-01      0.6804E+06
    990      1     10     90       0.000          0.6804E+06
    991      1     10     91       0.000          0.6804E+06
    992      1     10     92       0.000          0.6804E+06
    993      1     10     93     -0.8005E-01      0.6804E+06
    994      1     10     94     -0.1037          0.6804E+06
    995      1     10     95     -0.1303          0.6804E+06
    996      1     10     96     -0.1401          0.6804E+06
    997      1     10     97     -0.1600          0.6804E+06
    998      1     10     98     -0.2419          0.6804E+06
    999      1     10     99     -0.2095          0.6804E+06
   1000      1     10    100     -0.1550          0.6804E+06
   1001      1     11      1      0.4964          0.6804E+06
   1002      1     11      2      0.4960          0.6804E+06
   1003      1     11      3      0.4955          0.6804E+06
   1004      1     11      4      0.4946          0.6804E+06
   1005      1     11      5      0.4931          0.6804E+06
   1006      1     11      6      0.4907          0.6804E+06
   1007      1     11      7      0.4860          0.6804E+06
   1008      1     11      8      0.4755          0.6804E+06
   1009      1     11      9      0.4569          0.6804E+06
   1010      1     11     10      0.4316          0.6804E+06
   1011      1     11     11      0.4092          0.6804E+06
   1012      1     11     12      0.3863          0.6804E+06
   1013      1     11     13      0.3678          0.6804E+06
   1014      1     11     14      0.3528          0.6804E+06
   1015      1     11     15      0.3383          0.6804E+06
   1016      1     11     16      0.3288          0.6804E+06
   1017      1     11     17      0.3209          0.6804E+06
   1018      1     11     18      0.3155          0.6804E+06
   1019      1     11     19      0.3116          0.6804E+06
   1020      1     11     20      0.3054          0.6804E+06
   1021      1     11     21      0.2945          0.6804E+06
   1022      1     11     22      0.2823          0.6804E+06
   1023      1     11     23      0.2679          0.6804E+06
   1024      1     11     24      0.2554          0.6804E+06
   1025      1     11     25      0.2421          0.6804E+06
   1026      1     11     26      0.2289          0.6804E+06
   1027      1     11     27      0.2175          0.6804E+06
   1028      1     11     28      0.2064          0.6804E+06
   1029      1     11     29      0.1986          0.6804E+06
   1030      1     11     30      0.1943          0.6804E+06
   1031      1     11     31      0.1917          0.6804E+06
   1032      1     11     32      0.1902          0.6804E+06
   1033      1     11     33      0.1880          0.6804E+06
   1034      1     11     34      0.1833          0.6804E+06
   1035      1     11     35      0.1763          0.6804E+06
   1036      1     11     36      0.1644          0.6804E+06
   1037      1     11     37      0.1563          0.6804E+06
   1038      1     11     38      0.1601          0.6804E+06
   1039      1     11     39      0.1693          0.6804E+06
   1040      1     11     40      0.1763          0.6804E+06
   1041      1     11     41      0.1815          0.6804E+06
   1042      1     11     42      0.1845          0.6804E+06
   1043      1     11     43      0.1858          0.6804E+06
   1044      1     11     44      0.1860          0.6804E+06
   1045      1     11     45      0.1852          0.6804E+06
   1046      1     11     46      0.1835          0.6804E+06
   1047      1     11     47      0.1819          0.6804E+06
   1048      1     11     48      0.1839          0.6804E+06
   1049      1     11     49      0.1876          0.6804E+06
   1050      1     11     50      0.1900          0.6804E+06
   1051      1     11     51      0.1909          0.6804E+06
   1052      1     11     52      0.1907          0.6804E+06
   1053      1     11     53      0.1891          0.6804E+06
   1054      1     11     54      0.1861          0.6804E+06
   1055      1     11     55      0.1827          0.6804E+06
   1056      1     11     56      0.1796          0.6804E+06
   1057      1     11     57      0.1755          0.6804E+06
   1058      1     11     58      0.1713          0.6804E+06
   1059      1     11     59      0.1677          0.6804E+06
   1060      1     11     60      0.1634          0.6804E+06
   1061      1     11     61      0.1600          0.6804E+06
   1062      1     11     62      0.1560          0.6804E+06
   1063      1     11     63      0.1514          0.6804E+06
   1064      1     11     64      0.1463          0.6804E+06
   1065      1     11     65      0.1389          0.6804E+06
   1066      1     11     66      0.1304          0.6804E+06
   1067      1     11     67      0.1237          0.6804E+06
   1068      1     11     68      0.1186          0.6804E+06
   1069      1     11     69      0.1149          0.6804E+06
   1070      1     11     70      0.1109          0.6804E+06
   1071      1     11     71      0.1065          0.6804E+06
   1072      1     11     72      0.1019          0.6804E+06
   1073      1     11     73      0.9568E-01      0.6804E+06
   1074      1     11     74      0.9004E-01      0.6804E+06
   1075      1     11     75      0.8625E-01      0.6804E+06
   1076      1     11     76      0.8396E-01      0.6804E+06
   1077      1     11     77      0.8147E-01      0.6804E+06
   1078      1     11     78      0.7762E-01      0.6804E+06
   1079      1     11     79      0.7270E-01      0.6804E+06
   1080      1     11     80      0.6809E-01      0.6804E+06
   1081      1     11     81      0.6301E-01      0.6804E+06
   1082      1     11     82      0.5786E-01      0.6804E+06
   1083      1     11     83      0.5327E-01      0.6804E+06
   1084      1     11     84      0.4735E-01      0.6804E+06
   1085      1     11     85      0.3999E-01      0.6804E+06
   1086      1     11     86      0.2950E-01      0.6804E+06
   1087      1     11     87      0.1704E-01      0.6804E+06
   1088      1     11     88      0.5363E-02      0.6804E+06
   1089      1     11     89       0.000          0.6804E+06
   1090      1     11     90       0.000          0.6804E+06
   1091      1     11     91     -0.6310E-01      0.6804E+06
   1092      1     11     92     -0.8652E-01      0.6804E+06
   1093      1     11     93     -0.1029          0.6804E+06
   1094      1     11     94     -0.1237          0.6804E+06
   1095      1     11     95     -0.1383          0.6804E+06
   1096      1     11     96     -0.1603          0.6804E+06
   1097      1     11     97     -0.2289          0.6804E+06
   1098      1     11     98     -0.2050          0.6804E+06
   1099      1     11     99     -0.1569          0.6804E+06
   1100      1     11    100     -0.1391          0.6804E+06
   1101      1     12      1      0.5005          0.6804E+06
   1102      1     12      2      0.4995          0.6804E+06
   1103      1     12      3      0.4984          0.6804E+06
   1104      1     12      4      0.4965          0.6804E+06
   1105      1     12      5      0.4937          0.6804E+06
   1106      1     12      6      0.4895          0.6804E+06
   1107      1     12      7      0.4814          0.6804E+06
   1108      1     12      8      0.4671          0.6804E+06
   1109      1     12      9      0.4475          0.6804E+06
   1110      1     12     10      0.4195          0.6804E+06
   1111      1     12     11      0.3936          0.6804E+06
   1112      1     12     12      0.3655          0.6804E+06
   1113      1     12     13      0.3402          0.6804E+06
   1114      1     12     14      0.3244          0.6804E+06
   1115      1     12     15      0.3130          0.6804E+06
   1116      1     12     16      0.3076          0.6804E+06
   1117      1     12     17      0.3017          0.6804E+06
   1118      1     12     18      0.2963          0.6804E+06
   1119      1     12     19      0.2915          0.6804E+06
   1120      1     12     20      0.2843          0.6804E+06
   1121      1     12     21      0.2741          0.6804E+06
   1122      1     12     22      0.2635          0.6804E+06
   1123      1     12     23      0.2507          0.6804E+06
   1124      1     12     24      0.2391          0.6804E+06
   1125      1     12     25      0.2265          0.6804E+06
   1126      1     12     26      0.2146          0.6804E+06
   1127      1     12     27      0.2049          0.6804E+06
   1128      1     12     28      0.1957          0.6804E+06
   1129      1     12     29      0.1895          0.6804E+06
   1130      1     12     30      0.1857          0.6804E+06
   1131      1     12     31      0.1838          0.6804E+06
   1132      1     12     32      0.1838          0.6804E+06
   1133      1     12     33      0.1843          0.6804E+06
   1134      1     12     34      0.1846          0.6804E+06
   1135      1     12     35      0.1850          0.6804E+06
   1136      1     12     36      0.1852          0.6804E+06
   1137      1     12     37      0.1857          0.6804E+06
   1138      1     12     38      0.1843          0.6804E+06
   1139      1     12     39      0.1823          0.6804E+06
   1140      1     12     40      0.1810          0.6804E+06
   1141      1     12     41      0.1797          0.6804E+06
   1142      1     12     42      0.1785          0.6804E+06
   1143      1     12     43      0.1776          0.6804E+06
   1144      1     12     44      0.1758          0.6804E+06
   1145      1     12     45      0.1730          0.6804E+06
   1146      1     12     46      0.1701          0.6804E+06
   1147      1     12     47      0.1677          0.6804E+06
   1148      1     12     48      0.1694          0.6804E+06
   1149      1     12     49      0.1730          0.6804E+06
   1150      1     12     50      0.1752          0.6804E+06
   1151      1     12     51      0.1764          0.6804E+06
   1152      1     12     52      0.1764          0.6804E+06
   1153      1     12     53      0.1743          0.6804E+06
   1154      1     12     54      0.1706          0.6804E+06
   1155      1     12     55      0.1693          0.6804E+06
   1156      1     12     56      0.1667          0.6804E+06
   1157      1     12     57      0.1628          0.6804E+06
   1158      1     12     58      0.1588          0.6804E+06
   1159      1     12     59      0.1551          0.6804E+06
   1160      1     12     60      0.1509          0.6804E+06
   1161      1     12     61      0.1473          0.6804E+06
   1162      1     12     62      0.1432          0.6804E+06
   1163      1     12     63      0.1389          0.6804E+06
   1164      1     12     64      0.1344          0.6804E+06
   1165      1     12     65      0.1265          0.6804E+06
   1166      1     12     66      0.1167          0.6804E+06
   1167      1     12     67      0.1092          0.6804E+06
   1168      1     12     68      0.1054          0.6804E+06
   1169      1     12     69      0.1031          0.6804E+06
   1170      1     12     70      0.1002          0.6804E+06
   1171      1     12     71      0.9652E-01      0.6804E+06
   1172      1     12     72      0.9234E-01      0.6804E+06
   1173      1     12     73      0.8685E-01      0.6804E+06
   1174      1     12     74      0.8189E-01      0.6804E+06
   1175      1     12     75      0.7844E-01      0.6804E+06
   1176      1     12     76      0.7588E-01      0.6804E+06
   1177      1     12     77      0.7315E-01      0.6804E+06
   1178      1     12     78      0.6915E-01      0.6804E+06
   1179      1     12     79      0.6400E-01      0.6804E+06
   1180      1     12     80      0.5893E-01      0.6804E+06
   1181      1     12     81      0.5325E-01      0.6804E+06
   1182      1     12     82      0.4783E-01      0.6804E+06
   1183      1     12     83      0.4289E-01      0.6804E+06
   1184      1     12     84      0.3546E-01      0.6804E+06
   1185      1     12     85      0.2601E-01      0.6804E+06
   1186      1     12     86      0.1418E-01      0.6804E+06
   1187      1     12     87      0.9250E-03      0.6804E+06
   1188      1     12     88       0.000          0.6804E+06
   1189      1     12     89       0.000          0.6804E+06
   1190      1     12     90     -0.7046E-01      0.6804E+06
   1191      1     12     91     -0.8687E-01      0.6804E+06
   1192      1     12     92     -0.1042          0.6804E+06
   1193      1     12     93     -0.1183          0.6804E+06
   1194      1     12     94     -0.1342          0.6804E+06
   1195      1     12     95     -0.1562          0.6804E+06
   1196      1     12     96     -0.2266          0.6804E+06
   1197      1     12     97     -0.1988          0.6804E+06
   1198      1     12     98     -0.1559          0.6804E+06
   1199      1     12     99     -0.1234          0.6804E+06
   1200      1     12    100     -0.1214          0.6804E+06
   1201      1     13      1      0.5044          0.6804E+06
   1202      1     13      2      0.5024          0.6804E+06
   1203      1     13      3      0.5004          0.6804E+06
   1204      1     13      4      0.4974          0.6804E+06
   1205      1     13      5      0.4931          0.6804E+06
   1206      1     13      6      0.4871          0.6804E+06
   1207      1     13      7      0.4765          0.6804E+06
   1208      1     13      8      0.4596          0.6804E+06
   1209      1     13      9      0.4382          0.6804E+06
   1210      1     13     10      0.4073          0.6804E+06
   1211      1     13     11      0.3781          0.6804E+06
   1212      1     13     12      0.3455          0.6804E+06
   1213      1     13     13      0.3149          0.6804E+06
   1214      1     13     14      0.2984          0.6804E+06
   1215      1     13     15      0.2888          0.6804E+06
   1216      1     13     16      0.2856          0.6804E+06
   1217      1     13     17      0.2810          0.6804E+06
   1218      1     13     18      0.2750          0.6804E+06
   1219      1     13     19      0.2690          0.6804E+06
   1220      1     13     20      0.2607          0.6804E+06
   1221      1     13     21      0.2508          0.6804E+06
   1222      1     13     22      0.2413          0.6804E+06
   1223      1     13     23      0.2297          0.6804E+06
   1224      1     13     24      0.2189          0.6804E+06
   1225      1     13     25      0.2072          0.6804E+06
   1226      1     13     26      0.1967          0.6804E+06
   1227      1     13     27      0.1884          0.6804E+06
   1228      1     13     28      0.1810          0.6804E+06
   1229      1     13     29      0.1766          0.6804E+06
   1230      1     13     30      0.1743          0.6804E+06
   1231      1     13     31      0.1738          0.6804E+06
   1232      1     13     32      0.1755          0.6804E+06
   1233      1     13     33      0.1799          0.6804E+06
   1234      1     13     34      0.1864          0.6804E+06
   1235      1     13     35      0.1954          0.6804E+06
   1236      1     13     36      0.2086          0.6804E+06
   1237      1     13     37      0.2184          0.6804E+06
   1238      1     13     38      0.2114          0.6804E+06
   1239      1     13     39      0.1974          0.6804E+06
   1240      1     13     40      0.1865          0.6804E+06
   1241      1     13     41      0.1780          0.6804E+06
   1242      1     13     42      0.1723          0.6804E+06
   1243      1     13     43      0.1693          0.6804E+06
   1244      1     13     44      0.1655          0.6804E+06
   1245      1     13     45      0.1614          0.6804E+06
   1246      1     13     46      0.1585          0.6804E+06
   1247      1     13     47      0.1564          0.6804E+06
   1248      1     13     48      0.1572          0.6804E+06
   1249      1     13     49      0.1594          0.6804E+06
   1250      1     13     50      0.1607          0.6804E+06
   1251      1     13     51      0.1615          0.6804E+06
   1252      1     13     52      0.1604          0.6804E+06
   1253      1     13     53      0.1583          0.6804E+06
   1254      1     13     54      0.1563          0.6804E+06
   1255      1     13     55      0.1549          0.6804E+06
   1256      1     13     56      0.1521          0.6804E+06
   1257      1     13     57      0.1480          0.6804E+06
   1258      1     13     58      0.1438          0.6804E+06
   1259      1     13     59      0.1399          0.6804E+06
   1260      1     13     60      0.1354          0.6804E+06
   1261      1     13     61      0.1316          0.6804E+06
   1262      1     13     62      0.1272          0.6804E+06
   1263      1     13     63      0.1240          0.6804E+06
   1264      1     13     64      0.1198          0.6804E+06
   1265      1     13     65      0.1122          0.6804E+06
   1266      1     13     66      0.1019          0.6804E+06
   1267      1     13     67      0.9317E-01      0.6804E+06
   1268      1     13     68      0.9147E-01      0.6804E+06
   1269      1     13     69      0.9093E-01      0.6804E+06
   1270      1     13     70      0.8931E-01      0.6804E+06
   1271      1     13     71      0.8636E-01      0.6804E+06
   1272      1     13     72      0.8272E-01      0.6804E+06
   1273      1     13     73      0.7806E-01      0.6804E+06
   1274      1     13     74      0.7389E-01      0.6804E+06
   1275      1     13     75      0.7073E-01      0.6804E+06
   1276      1     13     76      0.6702E-01      0.6804E+06
   1277      1     13     77      0.6354E-01      0.6804E+06
   1278      1     13     78      0.5881E-01      0.6804E+06
   1279      1     13     79      0.5279E-01      0.6804E+06
   1280      1     13     80      0.4697E-01      0.6804E+06
   1281      1     13     81      0.3993E-01      0.6804E+06
   1282      1     13     82      0.3310E-01      0.6804E+06
   1283      1     13     83      0.2724E-01      0.6804E+06
   1284      1     13     84      0.1894E-01      0.6804E+06
   1285      1     13     85      0.7591E-02      0.6804E+06
   1286      1     13     86       0.000          0.6804E+06
   1287      1     13     87       0.000          0.6804E+06
   1288      1     13     88     -0.5507E-01      0.6804E+06
   1289      1     13     89     -0.7767E-01      0.6804E+06
   1290      1     13     90     -0.9604E-01      0.6804E+06
   1291      1     13     91     -0.1095          0.6804E+06
   1292      1     13     92     -0.1211          0.6804E+06
   1293      1     13     93     -0.1322          0.6804E+06
   1294      1     13     94     -0.1323          0.6804E+06
   1295      1     13     95     -0.1705          0.6804E+06
   1296      1     13     96     -0.2359          0.6804E+06
   1297      1     13     97     -0.1808          0.6804E+06
   1298      1     13     98     -0.1415          0.6804E+06
   1299      1     13     99     -0.1149          0.6804E+06
   1300      1     13    100     -0.1151          0.6804E+06
   1301      1     14      1      0.5075          0.6804E+06
   1302      1     14      2      0.5045          0.6804E+06
   1303      1     14      3      0.5015          0.6804E+06
   1304      1     14      4      0.4975          0.6804E+06
   1305      1     14      5      0.4922          0.6804E+06
   1306      1     14      6      0.4855          0.6804E+06
   1307      1     14      7      0.4742          0.6804E+06
   1308      1     14      8      0.4567          0.6804E+06
   1309      1     14      9      0.4344          0.6804E+06
   1310      1     14     10      0.4021          0.6804E+06
   1311      1     14     11      0.3712          0.6804E+06
   1312      1     14     12      0.3364          0.6804E+06
   1313      1     14     13      0.3056          0.6804E+06
   1314      1     14     14      0.2873          0.6804E+06
   1315      1     14     15      0.2750          0.6804E+06
   1316      1     14     16      0.2695          0.6804E+06
   1317      1     14     17      0.2634          0.6804E+06
   1318      1     14     18      0.2561          0.6804E+06
   1319      1     14     19      0.2487          0.6804E+06
   1320      1     14     20      0.2391          0.6804E+06
   1321      1     14     21      0.2288          0.6804E+06
   1322      1     14     22      0.2196          0.6804E+06
   1323      1     14     23      0.2086          0.6804E+06
   1324      1     14     24      0.1984          0.6804E+06
   1325      1     14     25      0.1874          0.6804E+06
   1326      1     14     26      0.1778          0.6804E+06
   1327      1     14     27      0.1704          0.6804E+06
   1328      1     14     28      0.1641          0.6804E+06
   1329      1     14     29      0.1614          0.6804E+06
   1330      1     14     30      0.1607          0.6804E+06
   1331      1     14     31      0.1615          0.6804E+06
   1332      1     14     32      0.1645          0.6804E+06
   1333      1     14     33      0.1713          0.6804E+06
   1334      1     14     34      0.1816          0.6804E+06
   1335      1     14     35      0.1949          0.6804E+06
   1336      1     14     36      0.2137          0.6804E+06
   1337      1     14     37      0.2274          0.6804E+06
   1338      1     14     38      0.2180          0.6804E+06
   1339      1     14     39      0.1994          0.6804E+06
   1340      1     14     40      0.1844          0.6804E+06
   1341      1     14     41      0.1727          0.6804E+06
   1342      1     14     42      0.1647          0.6804E+06
   1343      1     14     43      0.1597          0.6804E+06
   1344      1     14     44      0.1550          0.6804E+06
   1345      1     14     45      0.1516          0.6804E+06
   1346      1     14     46      0.1502          0.6804E+06
   1347      1     14     47      0.1491          0.6804E+06
   1348      1     14     48      0.1487          0.6804E+06
   1349      1     14     49      0.1486          0.6804E+06
   1350      1     14     50      0.1485          0.6804E+06
   1351      1     14     51      0.1477          0.6804E+06
   1352      1     14     52      0.1458          0.6804E+06
   1353      1     14     53      0.1444          0.6804E+06
   1354      1     14     54      0.1436          0.6804E+06
   1355      1     14     55      0.1409          0.6804E+06
   1356      1     14     56      0.1375          0.6804E+06
   1357      1     14     57      0.1331          0.6804E+06
   1358      1     14     58      0.1289          0.6804E+06
   1359      1     14     59      0.1246          0.6804E+06
   1360      1     14     60      0.1194          0.6804E+06
   1361      1     14     61      0.1155          0.6804E+06
   1362      1     14     62      0.1122          0.6804E+06
   1363      1     14     63      0.1099          0.6804E+06
   1364      1     14     64      0.1065          0.6804E+06
   1365      1     14     65      0.1005          0.6804E+06
   1366      1     14     66      0.9264E-01      0.6804E+06
   1367      1     14     67      0.8619E-01      0.6804E+06
   1368      1     14     68      0.8330E-01      0.6804E+06
   1369      1     14     69      0.8193E-01      0.6804E+06
   1370      1     14     70      0.8018E-01      0.6804E+06
   1371      1     14     71      0.7730E-01      0.6804E+06
   1372      1     14     72      0.7382E-01      0.6804E+06
   1373      1     14     73      0.6933E-01      0.6804E+06
   1374      1     14     74      0.6537E-01      0.6804E+06
   1375      1     14     75      0.6226E-01      0.6804E+06
   1376      1     14     76      0.5722E-01      0.6804E+06
   1377      1     14     77      0.5278E-01      0.6804E+06
   1378      1     14     78      0.4708E-01      0.6804E+06
   1379      1     14     79      0.3986E-01      0.6804E+06
   1380      1     14     80      0.3278E-01      0.6804E+06
   1381      1     14     81      0.2332E-01      0.6804E+06
   1382      1     14     82      0.1378E-01      0.6804E+06
   1383      1     14     83      0.6767E-02      0.6804E+06
   1384      1     14     84       0.000          0.6804E+06
   1385      1     14     85       0.000          0.6804E+06
   1386      1     14     86       0.000          0.6804E+06
   1387      1     14     87     -0.6990E-01      0.6804E+06
   1388      1     14     88     -0.8457E-01      0.6804E+06
   1389      1     14     89     -0.1005          0.6804E+06
   1390      1     14     90     -0.1123          0.6804E+06
   1391      1     14     91     -0.1239          0.6804E+06
   1392      1     14     92     -0.1294          0.6804E+06
   1393      1     14     93     -0.1235          0.6804E+06
   1394      1     14     94     -0.1113          0.6804E+06
   1395      1     14     95     -0.1083          0.6804E+06
   1396      1     14     96     -0.1203          0.6804E+06
   1397      1     14     97     -0.1151          0.6804E+06
   1398      1     14     98     -0.9548E-01      0.6804E+06
   1399      1     14     99     -0.9044E-01      0.6804E+06
   1400      1     14    100     -0.9852E-01      0.6804E+06
   1401      1     15      1      0.5097          0.6804E+06
   1402      1     15      2      0.5056          0.6804E+06
   1403      1     15      3      0.5017          0.6804E+06
   1404      1     15      4      0.4968          0.6804E+06
   1405      1     15      5      0.4910          0.6804E+06
   1406      1     15      6      0.4845          0.6804E+06
   1407      1     15      7      0.4742          0.6804E+06
   1408      1     15      8      0.4581          0.6804E+06
   1409      1     15      9      0.4357          0.6804E+06
   1410      1     15     10      0.4026          0.6804E+06
   1411      1     15     11      0.3704          0.6804E+06
   1412      1     15     12      0.3344          0.6804E+06
   1413      1     15     13      0.3034          0.6804E+06
   1414      1     15     14      0.2839          0.6804E+06
   1415      1     15     15      0.2688          0.6804E+06
   1416      1     15     16      0.2604          0.6804E+06
   1417      1     15     17      0.2518          0.6804E+06
   1418      1     15     18      0.2425          0.6804E+06
   1419      1     15     19      0.2338          0.6804E+06
   1420      1     15     20      0.2228          0.6804E+06
   1421      1     15     21      0.2115          0.6804E+06
   1422      1     15     22      0.2016          0.6804E+06
   1423      1     15     23      0.1904          0.6804E+06
   1424      1     15     24      0.1804          0.6804E+06
   1425      1     15     25      0.1697          0.6804E+06
   1426      1     15     26      0.1606          0.6804E+06
   1427      1     15     27      0.1537          0.6804E+06
   1428      1     15     28      0.1482          0.6804E+06
   1429      1     15     29      0.1468          0.6804E+06
   1430      1     15     30      0.1467          0.6804E+06
   1431      1     15     31      0.1483          0.6804E+06
   1432      1     15     32      0.1522          0.6804E+06
   1433      1     15     33      0.1601          0.6804E+06
   1434      1     15     34      0.1709          0.6804E+06
   1435      1     15     35      0.1831          0.6804E+06
   1436      1     15     36      0.1983          0.6804E+06
   1437      1     15     37      0.2078          0.6804E+06
   1438      1     15     38      0.2007          0.6804E+06
   1439      1     15     39      0.1863          0.6804E+06
   1440      1     15     40      0.1735          0.6804E+06
   1441      1     15     41      0.1624          0.6804E+06
   1442      1     15     42      0.1549          0.6804E+06
   1443      1     15     43      0.1497          0.6804E+06
   1444      1     15     44      0.1454          0.6804E+06
   1445      1     15     45      0.1435          0.6804E+06
   1446      1     15     46      0.1436          0.6804E+06
   1447      1     15     47      0.1428          0.6804E+06
   1448      1     15     48      0.1416          0.6804E+06
   1449      1     15     49      0.1399          0.6804E+06
   1450      1     15     50      0.1384          0.6804E+06
   1451      1     15     51      0.1357          0.6804E+06
   1452      1     15     52      0.1348          0.6804E+06
   1453      1     15     53      0.1345          0.6804E+06
   1454      1     15     54      0.1321          0.6804E+06
   1455      1     15     55      0.1286          0.6804E+06
   1456      1     15     56      0.1247          0.6804E+06
   1457      1     15     57      0.1202          0.6804E+06
   1458      1     15     58      0.1164          0.6804E+06
   1459      1     15     59      0.1120          0.6804E+06
   1460      1     15     60      0.1064          0.6804E+06
   1461      1     15     61      0.1027          0.6804E+06
   1462      1     15     62      0.1004          0.6804E+06
   1463      1     15     63      0.9913E-01      0.6804E+06
   1464      1     15     64      0.9672E-01      0.6804E+06
   1465      1     15     65      0.9227E-01      0.6804E+06
   1466      1     15     66      0.8654E-01      0.6804E+06
   1467      1     15     67      0.8177E-01      0.6804E+06
   1468      1     15     68      0.7807E-01      0.6804E+06
   1469      1     15     69      0.7570E-01      0.6804E+06
   1470      1     15     70      0.7318E-01      0.6804E+06
   1471      1     15     71      0.6998E-01      0.6804E+06
   1472      1     15     72      0.6634E-01      0.6804E+06
   1473      1     15     73      0.6178E-01      0.6804E+06
   1474      1     15     74      0.5740E-01      0.6804E+06
   1475      1     15     75      0.5345E-01      0.6804E+06
   1476      1     15     76      0.4765E-01      0.6804E+06
   1477      1     15     77      0.4245E-01      0.6804E+06
   1478      1     15     78      0.3577E-01      0.6804E+06
   1479      1     15     79      0.2695E-01      0.6804E+06
   1480      1     15     80      0.1672E-01      0.6804E+06
   1481      1     15     81      0.4409E-02      0.6804E+06
   1482      1     15     82       0.000          0.6804E+06
   1483      1     15     83       0.000          0.6804E+06
   1484      1     15     84       0.000          0.6804E+06
   1485      1     15     85     -0.5727E-01      0.6804E+06
   1486      1     15     86     -0.7659E-01      0.6804E+06
   1487      1     15     87     -0.9258E-01      0.6804E+06
   1488      1     15     88     -0.1039          0.6804E+06
   1489      1     15     89     -0.1146          0.6804E+06
   1490      1     15     90     -0.1237          0.6804E+06
   1491      1     15     91     -0.1298          0.6804E+06
   1492      1     15     92     -0.1364          0.6804E+06
   1493      1     15     93     -0.9256E-01      0.6804E+06
   1494      1     15     94     -0.6529E-01      0.6804E+06
   1495      1     15     95     -0.4532E-01      0.6804E+06
   1496      1     15     96     -0.3364E-01      0.6804E+06
   1497      1     15     97     -0.2528E-01      0.6804E+06
   1498      1     15     98     -0.1991E-01      0.6804E+06
   1499      1     15     99     -0.2013E-01      0.6804E+06
   1500      1     15    100     -0.2466E-01      0.6804E+06
   1501      1     16      1      0.5117          0.6804E+06
   1502      1     16      2      0.5062          0.6804E+06
   1503      1     16      3      0.5011          0.6804E+06
   1504      1     16      4      0.4951          0.6804E+06
   1505      1     16      5      0.4888          0.6804E+06
   1506      1     16      6      0.4828          0.6804E+06
   1507      1     16      7      0.4744          0.6804E+06
   1508      1     16      8      0.4616          0.6804E+06
   1509      1     16      9      0.4391          0.6804E+06
   1510      1     16     10      0.4047          0.6804E+06
   1511      1     16     11      0.3710          0.6804E+06
   1512      1     16     12      0.3335          0.6804E+06
   1513      1     16     13      0.3011          0.6804E+06
   1514      1     16     14      0.2806          0.6804E+06
   1515      1     16     15      0.2641          0.6804E+06
   1516      1     16     16      0.2535          0.6804E+06
   1517      1     16     17      0.2422          0.6804E+06
   1518      1     16     18      0.2306          0.6804E+06
   1519      1     16     19      0.2201          0.6804E+06
   1520      1     16     20      0.2073          0.6804E+06
   1521      1     16     21      0.1940          0.6804E+06
   1522      1     16     22      0.1829          0.6804E+06
   1523      1     16     23      0.1706          0.6804E+06
   1524      1     16     24      0.1597          0.6804E+06
   1525      1     16     25      0.1484          0.6804E+06
   1526      1     16     26      0.1396          0.6804E+06
   1527      1     16     27      0.1334          0.6804E+06
   1528      1     16     28      0.1290          0.6804E+06
   1529      1     16     29      0.1286          0.6804E+06
   1530      1     16     30      0.1287          0.6804E+06
   1531      1     16     31      0.1310          0.6804E+06
   1532      1     16     32      0.1358          0.6804E+06
   1533      1     16     33      0.1437          0.6804E+06
   1534      1     16     34      0.1528          0.6804E+06
   1535      1     16     35      0.1609          0.6804E+06
   1536      1     16     36      0.1686          0.6804E+06
   1537      1     16     37      0.1713          0.6804E+06
   1538      1     16     38      0.1682          0.6804E+06
   1539      1     16     39      0.1613          0.6804E+06
   1540      1     16     40      0.1537          0.6804E+06
   1541      1     16     41      0.1457          0.6804E+06
   1542      1     16     42      0.1414          0.6804E+06
   1543      1     16     43      0.1373          0.6804E+06
   1544      1     16     44      0.1339          0.6804E+06
   1545      1     16     45      0.1332          0.6804E+06
   1546      1     16     46      0.1338          0.6804E+06
   1547      1     16     47      0.1335          0.6804E+06
   1548      1     16     48      0.1321          0.6804E+06
   1549      1     16     49      0.1293          0.6804E+06
   1550      1     16     50      0.1260          0.6804E+06
   1551      1     16     51      0.1247          0.6804E+06
   1552      1     16     52      0.1238          0.6804E+06
   1553      1     16     53      0.1221          0.6804E+06
   1554      1     16     54      0.1190          0.6804E+06
   1555      1     16     55      0.1149          0.6804E+06
   1556      1     16     56      0.1106          0.6804E+06
   1557      1     16     57      0.1062          0.6804E+06
   1558      1     16     58      0.1032          0.6804E+06
   1559      1     16     59      0.9961E-01      0.6804E+06
   1560      1     16     60      0.9462E-01      0.6804E+06
   1561      1     16     61      0.9123E-01      0.6804E+06
   1562      1     16     62      0.8954E-01      0.6804E+06
   1563      1     16     63      0.8927E-01      0.6804E+06
   1564      1     16     64      0.8770E-01      0.6804E+06
   1565      1     16     65      0.8443E-01      0.6804E+06
   1566      1     16     66      0.8000E-01      0.6804E+06
   1567      1     16     67      0.7607E-01      0.6804E+06
   1568      1     16     68      0.7199E-01      0.6804E+06
   1569      1     16     69      0.6876E-01      0.6804E+06
   1570      1     16     70      0.6524E-01      0.6804E+06
   1571      1     16     71      0.6114E-01      0.6804E+06
   1572      1     16     72      0.5699E-01      0.6804E+06
   1573      1     16     73      0.5135E-01      0.6804E+06
   1574      1     16     74      0.4537E-01      0.6804E+06
   1575      1     16     75      0.4001E-01      0.6804E+06
   1576      1     16     76      0.3291E-01      0.6804E+06
   1577      1     16     77      0.2612E-01      0.6804E+06
   1578      1     16     78      0.1827E-01      0.6804E+06
   1579      1     16     79      0.9393E-02      0.6804E+06
   1580      1     16     80       0.000          0.6804E+06
   1581      1     16     81       0.000          0.6804E+06
   1582      1     16     82       0.000          0.6804E+06
   1583      1     16     83     -0.5502E-01      0.6804E+06
   1584      1     16     84     -0.7255E-01      0.6804E+06
   1585      1     16     85     -0.8768E-01      0.6804E+06
   1586      1     16     86     -0.1024          0.6804E+06
   1587      1     16     87     -0.1115          0.6804E+06
   1588      1     16     88     -0.1170          0.6804E+06
   1589      1     16     89     -0.1233          0.6804E+06
   1590      1     16     90     -0.1447          0.6804E+06
   1591      1     16     91     -0.1675          0.6804E+06
   1592      1     16     92     -0.8646E-01      0.6804E+06
   1593      1     16     93     -0.3336E-01      0.6804E+06
   1594      1     16     94     -0.6072E-02      0.6804E+06
   1595      1     16     95      0.8056E-02      0.6804E+06
   1596      1     16     96      0.1391E-01      0.6804E+06
   1597      1     16     97      0.1903E-01      0.6804E+06
   1598      1     16     98      0.2325E-01      0.6804E+06
   1599      1     16     99      0.2518E-01      0.6804E+06
   1600      1     16    100      0.2259E-01      0.6804E+06
   1601      1     17      1      0.5132          0.6804E+06
   1602      1     17      2      0.5061          0.6804E+06
   1603      1     17      3      0.4996          0.6804E+06
   1604      1     17      4      0.4924          0.6804E+06
   1605      1     17      5      0.4856          0.6804E+06
   1606      1     17      6      0.4796          0.6804E+06
   1607      1     17      7      0.4724          0.6804E+06
   1608      1     17      8      0.4619          0.6804E+06
   1609      1     17      9      0.4397          0.6804E+06
   1610      1     17     10      0.4053          0.6804E+06
   1611      1     17     11      0.3715          0.6804E+06
   1612      1     17     12      0.3337          0.6804E+06
   1613      1     17     13      0.3002          0.6804E+06
   1614      1     17     14      0.2792          0.6804E+06
   1615      1     17     15      0.2623          0.6804E+06
   1616      1     17     16      0.2502          0.6804E+06
   1617      1     17     17      0.2367          0.6804E+06
   1618      1     17     18      0.2231          0.6804E+06
   1619      1     17     19      0.2108          0.6804E+06
   1620      1     17     20      0.1962          0.6804E+06
   1621      1     17     21      0.1812          0.6804E+06
   1622      1     17     22      0.1685          0.6804E+06
   1623      1     17     23      0.1543          0.6804E+06
   1624      1     17     24      0.1419          0.6804E+06
   1625      1     17     25      0.1295          0.6804E+06
   1626      1     17     26      0.1200          0.6804E+06
   1627      1     17     27      0.1139          0.6804E+06
   1628      1     17     28      0.1103          0.6804E+06
   1629      1     17     29      0.1107          0.6804E+06
   1630      1     17     30      0.1120          0.6804E+06
   1631      1     17     31      0.1153          0.6804E+06
   1632      1     17     32      0.1203          0.6804E+06
   1633      1     17     33      0.1270          0.6804E+06
   1634      1     17     34      0.1337          0.6804E+06
   1635      1     17     35      0.1382          0.6804E+06
   1636      1     17     36      0.1404          0.6804E+06
   1637      1     17     37      0.1388          0.6804E+06
   1638      1     17     38      0.1377          0.6804E+06
   1639      1     17     39      0.1360          0.6804E+06
   1640      1     17     40      0.1331          0.6804E+06
   1641      1     17     41      0.1291          0.6804E+06
   1642      1     17     42      0.1276          0.6804E+06
   1643      1     17     43      0.1251          0.6804E+06
   1644      1     17     44      0.1228          0.6804E+06
   1645      1     17     45      0.1228          0.6804E+06
   1646      1     17     46      0.1235          0.6804E+06
   1647      1     17     47      0.1234          0.6804E+06
   1648      1     17     48      0.1220          0.6804E+06
   1649      1     17     49      0.1190          0.6804E+06
   1650      1     17     50      0.1160          0.6804E+06
   1651      1     17     51      0.1151          0.6804E+06
   1652      1     17     52      0.1138          0.6804E+06
   1653      1     17     53      0.1116          0.6804E+06
   1654      1     17     54      0.1082          0.6804E+06
   1655      1     17     55      0.1036          0.6804E+06
   1656      1     17     56      0.9933E-01      0.6804E+06
   1657      1     17     57      0.9552E-01      0.6804E+06
   1658      1     17     58      0.9389E-01      0.6804E+06
   1659      1     17     59      0.9159E-01      0.6804E+06
   1660      1     17     60      0.8807E-01      0.6804E+06
   1661      1     17     61      0.8546E-01      0.6804E+06
   1662      1     17     62      0.8386E-01      0.6804E+06
   1663      1     17     63      0.8290E-01      0.6804E+06
   1664      1     17     64      0.8115E-01      0.6804E+06
   1665      1     17     65      0.7799E-01      0.6804E+06
   1666      1     17     66      0.7371E-01      0.6804E+06
   1667      1     17     67      0.6994E-01      0.6804E+06
   1668      1     17     68      0.6543E-01      0.6804E+06
   1669      1     17     69      0.6161E-01      0.6804E+06
   1670      1     17     70      0.5726E-01      0.6804E+06
   1671      1     17     71      0.5201E-01      0.6804E+06
   1672      1     17     72      0.4704E-01      0.6804E+06
   1673      1     17     73      0.3964E-01      0.6804E+06
   1674      1     17     74      0.3137E-01      0.6804E+06
   1675      1     17     75      0.2447E-01      0.6804E+06
   1676      1     17     76      0.1673E-01      0.6804E+06
   1677      1     17     77      0.7928E-02      0.6804E+06
   1678      1     17     78       0.000          0.6804E+06
   1679      1     17     79       0.000          0.6804E+06
   1680      1     17     80       0.000          0.6804E+06
   1681      1     17     81     -0.5108E-01      0.6804E+06
   1682      1     17     82     -0.6802E-01      0.6804E+06
   1683      1     17     83     -0.8274E-01      0.6804E+06
   1684      1     17     84     -0.9991E-01      0.6804E+06
   1685      1     17     85     -0.1090          0.6804E+06
   1686      1     17     86     -0.1146          0.6804E+06
   1687      1     17     87     -0.1207          0.6804E+06
   1688      1     17     88     -0.1303          0.6804E+06
   1689      1     17     89     -0.1228          0.6804E+06
   1690      1     17     90     -0.1321          0.6804E+06
   1691      1     17     91     -0.1019          0.6804E+06
   1692      1     17     92     -0.4046E-01      0.6804E+06
   1693      1     17     93     -0.4846E-02      0.6804E+06
   1694      1     17     94      0.2199E-01      0.6804E+06
   1695      1     17     95      0.3200E-01      0.6804E+06
   1696      1     17     96      0.3853E-01      0.6804E+06
   1697      1     17     97      0.4280E-01      0.6804E+06
   1698      1     17     98      0.4569E-01      0.6804E+06
   1699      1     17     99      0.4825E-01      0.6804E+06
   1700      1     17    100      0.4855E-01      0.6804E+06
   1701      1     18      1      0.5150          0.6804E+06
   1702      1     18      2      0.5057          0.6804E+06
   1703      1     18      3      0.4971          0.6804E+06
   1704      1     18      4      0.4879          0.6804E+06
   1705      1     18      5      0.4798          0.6804E+06
   1706      1     18      6      0.4730          0.6804E+06
   1707      1     18      7      0.4644          0.6804E+06
   1708      1     18      8      0.4516          0.6804E+06
   1709      1     18      9      0.4319          0.6804E+06
   1710      1     18     10      0.4020          0.6804E+06
   1711      1     18     11      0.3718          0.6804E+06
   1712      1     18     12      0.3362          0.6804E+06
   1713      1     18     13      0.3032          0.6804E+06
   1714      1     18     14      0.2818          0.6804E+06
   1715      1     18     15      0.2638          0.6804E+06
   1716      1     18     16      0.2494          0.6804E+06
   1717      1     18     17      0.2333          0.6804E+06
   1718      1     18     18      0.2170          0.6804E+06
   1719      1     18     19      0.2027          0.6804E+06
   1720      1     18     20      0.1862          0.6804E+06
   1721      1     18     21      0.1691          0.6804E+06
   1722      1     18     22      0.1541          0.6804E+06
   1723      1     18     23      0.1371          0.6804E+06
   1724      1     18     24      0.1224          0.6804E+06
   1725      1     18     25      0.1077          0.6804E+06
   1726      1     18     26      0.9683E-01      0.6804E+06
   1727      1     18     27      0.9037E-01      0.6804E+06
   1728      1     18     28      0.8722E-01      0.6804E+06
   1729      1     18     29      0.8822E-01      0.6804E+06
   1730      1     18     30      0.9017E-01      0.6804E+06
   1731      1     18     31      0.9450E-01      0.6804E+06
   1732      1     18     32      0.1004          0.6804E+06
   1733      1     18     33      0.1067          0.6804E+06
   1734      1     18     34      0.1114          0.6804E+06
   1735      1     18     35      0.1126          0.6804E+06
   1736      1     18     36      0.1102          0.6804E+06
   1737      1     18     37      0.1052          0.6804E+06
   1738      1     18     38      0.1062          0.6804E+06
   1739      1     18     39      0.1093          0.6804E+06
   1740      1     18     40      0.1112          0.6804E+06
   1741      1     18     41      0.1112          0.6804E+06
   1742      1     18     42      0.1096          0.6804E+06
   1743      1     18     43      0.1083          0.6804E+06
   1744      1     18     44      0.1079          0.6804E+06
   1745      1     18     45      0.1090          0.6804E+06
   1746      1     18     46      0.1104          0.6804E+06
   1747      1     18     47      0.1104          0.6804E+06
   1748      1     18     48      0.1092          0.6804E+06
   1749      1     18     49      0.1066          0.6804E+06
   1750      1     18     50      0.1047          0.6804E+06
   1751      1     18     51      0.1038          0.6804E+06
   1752      1     18     52      0.1026          0.6804E+06
   1753      1     18     53      0.1007          0.6804E+06
   1754      1     18     54      0.9736E-01      0.6804E+06
   1755      1     18     55      0.9312E-01      0.6804E+06
   1756      1     18     56      0.8958E-01      0.6804E+06
   1757      1     18     57      0.8681E-01      0.6804E+06
   1758      1     18     58      0.8607E-01      0.6804E+06
   1759      1     18     59      0.8470E-01      0.6804E+06
   1760      1     18     60      0.8208E-01      0.6804E+06
   1761      1     18     61      0.7980E-01      0.6804E+06
   1762      1     18     62      0.7801E-01      0.6804E+06
   1763      1     18     63      0.7614E-01      0.6804E+06
   1764      1     18     64      0.7453E-01      0.6804E+06
   1765      1     18     65      0.7158E-01      0.6804E+06
   1766      1     18     66      0.6652E-01      0.6804E+06
   1767      1     18     67      0.6196E-01      0.6804E+06
   1768      1     18     68      0.5659E-01      0.6804E+06
   1769      1     18     69      0.5138E-01      0.6804E+06
   1770      1     18     70      0.4482E-01      0.6804E+06
   1771      1     18     71      0.3818E-01      0.6804E+06
   1772      1     18     72      0.3179E-01      0.6804E+06
   1773      1     18     73      0.2190E-01      0.6804E+06
   1774      1     18     74      0.1020E-01      0.6804E+06
   1775      1     18     75      0.1296E-02      0.6804E+06
   1776      1     18     76       0.000          0.6804E+06
   1777      1     18     77       0.000          0.6804E+06
   1778      1     18     78     -0.3925E-01      0.6804E+06
   1779      1     18     79     -0.5736E-01      0.6804E+06
   1780      1     18     80     -0.6973E-01      0.6804E+06
   1781      1     18     81     -0.8366E-01      0.6804E+06
   1782      1     18     82     -0.9921E-01      0.6804E+06
   1783      1     18     83     -0.1082          0.6804E+06
   1784      1     18     84     -0.1187          0.6804E+06
   1785      1     18     85     -0.1239          0.6804E+06
   1786      1     18     86     -0.1364          0.6804E+06
   1787      1     18     87     -0.1754          0.6804E+06
   1788      1     18     88     -0.1704          0.6804E+06
   1789      1     18     89     -0.1120          0.6804E+06
   1790      1     18     90     -0.7852E-01      0.6804E+06
   1791      1     18     91     -0.5010E-01      0.6804E+06
   1792      1     18     92     -0.1938E-01      0.6804E+06
   1793      1     18     93      0.1274E-01      0.6804E+06
   1794      1     18     94      0.3358E-01      0.6804E+06
   1795      1     18     95      0.4648E-01      0.6804E+06
   1796      1     18     96      0.5397E-01      0.6804E+06
   1797      1     18     97      0.5858E-01      0.6804E+06
   1798      1     18     98      0.6146E-01      0.6804E+06
   1799      1     18     99      0.6370E-01      0.6804E+06
   1800      1     18    100      0.6368E-01      0.6804E+06
   1801      1     19      1      0.5176          0.6804E+06
   1802      1     19      2      0.5056          0.6804E+06
   1803      1     19      3      0.4941          0.6804E+06
   1804      1     19      4      0.4822          0.6804E+06
   1805      1     19      5      0.4725          0.6804E+06
   1806      1     19      6      0.4650          0.6804E+06
   1807      1     19      7      0.4553          0.6804E+06
   1808      1     19      8      0.4415          0.6804E+06
   1809      1     19      9      0.4239          0.6804E+06
   1810      1     19     10      0.3986          0.6804E+06
   1811      1     19     11      0.3731          0.6804E+06
   1812      1     19     12      0.3424          0.6804E+06
   1813      1     19     13      0.3132          0.6804E+06
   1814      1     19     14      0.2912          0.6804E+06
   1815      1     19     15      0.2694          0.6804E+06
   1816      1     19     16      0.2516          0.6804E+06
   1817      1     19     17      0.2320          0.6804E+06
   1818      1     19     18      0.2130          0.6804E+06
   1819      1     19     19      0.1969          0.6804E+06
   1820      1     19     20      0.1786          0.6804E+06
   1821      1     19     21      0.1591          0.6804E+06
   1822      1     19     22      0.1416          0.6804E+06
   1823      1     19     23      0.1216          0.6804E+06
   1824      1     19     24      0.1042          0.6804E+06
   1825      1     19     25      0.8605E-01      0.6804E+06
   1826      1     19     26      0.7284E-01      0.6804E+06
   1827      1     19     27      0.6629E-01      0.6804E+06
   1828      1     19     28      0.6528E-01      0.6804E+06
   1829      1     19     29      0.6610E-01      0.6804E+06
   1830      1     19     30      0.6813E-01      0.6804E+06
   1831      1     19     31      0.7319E-01      0.6804E+06
   1832      1     19     32      0.8027E-01      0.6804E+06
   1833      1     19     33      0.8782E-01      0.6804E+06
   1834      1     19     34      0.9142E-01      0.6804E+06
   1835      1     19     35      0.9206E-01      0.6804E+06
   1836      1     19     36      0.9011E-01      0.6804E+06
   1837      1     19     37      0.8604E-01      0.6804E+06
   1838      1     19     38      0.8684E-01      0.6804E+06
   1839      1     19     39      0.9017E-01      0.6804E+06
   1840      1     19     40      0.9291E-01      0.6804E+06
   1841      1     19     41      0.9369E-01      0.6804E+06
   1842      1     19     42      0.9127E-01      0.6804E+06
   1843      1     19     43      0.9041E-01      0.6804E+06
   1844      1     19     44      0.9178E-01      0.6804E+06
   1845      1     19     45      0.9528E-01      0.6804E+06
   1846      1     19     46      0.9760E-01      0.6804E+06
   1847      1     19     47      0.9823E-01      0.6804E+06
   1848      1     19     48      0.9748E-01      0.6804E+06
   1849      1     19     49      0.9529E-01      0.6804E+06
   1850      1     19     50      0.9284E-01      0.6804E+06
   1851      1     19     51      0.9261E-01      0.6804E+06
   1852      1     19     52      0.9243E-01      0.6804E+06
   1853      1     19     53      0.9105E-01      0.6804E+06
   1854      1     19     54      0.8836E-01      0.6804E+06
   1855      1     19     55      0.8527E-01      0.6804E+06
   1856      1     19     56      0.8289E-01      0.6804E+06
   1857      1     19     57      0.8097E-01      0.6804E+06
   1858      1     19     58      0.7977E-01      0.6804E+06
   1859      1     19     59      0.7843E-01      0.6804E+06
   1860      1     19     60      0.7613E-01      0.6804E+06
   1861      1     19     61      0.7399E-01      0.6804E+06
   1862      1     19     62      0.7179E-01      0.6804E+06
   1863      1     19     63      0.6910E-01      0.6804E+06
   1864      1     19     64      0.6662E-01      0.6804E+06
   1865      1     19     65      0.6244E-01      0.6804E+06
   1866      1     19     66      0.5576E-01      0.6804E+06
   1867      1     19     67      0.4981E-01      0.6804E+06
   1868      1     19     68      0.4356E-01      0.6804E+06
   1869      1     19     69      0.3713E-01      0.6804E+06
   1870      1     19     70      0.2787E-01      0.6804E+06
   1871      1     19     71      0.1825E-01      0.6804E+06
   1872      1     19     72      0.1143E-01      0.6804E+06
   1873      1     19     73       0.000          0.6804E+06
   1874      1     19     74       0.000          0.6804E+06
   1875      1     19     75       0.000          0.6804E+06
   1876      1     19     76     -0.4811E-01      0.6804E+06
   1877      1     19     77     -0.6180E-01      0.6804E+06
   1878      1     19     78     -0.7619E-01      0.6804E+06
   1879      1     19     79     -0.8926E-01      0.6804E+06
   1880      1     19     80     -0.9948E-01      0.6804E+06
   1881      1     19     81     -0.1092          0.6804E+06
   1882      1     19     82     -0.1171          0.6804E+06
   1883      1     19     83     -0.1248          0.6804E+06
   1884      1     19     84     -0.1330          0.6804E+06
   1885      1     19     85     -0.1743          0.6804E+06
   1886      1     19     86     -0.1870          0.6804E+06
   1887      1     19     87     -0.1366          0.6804E+06
   1888      1     19     88     -0.9559E-01      0.6804E+06
   1889      1     19     89     -0.5371E-01      0.6804E+06
   1890      1     19     90     -0.3088E-01      0.6804E+06
   1891      1     19     91       0.000          0.6804E+06
   1892      1     19     92      0.6593E-02      0.6804E+06
   1893      1     19     93      0.2592E-01      0.6804E+06
   1894      1     19     94      0.4330E-01      0.6804E+06
   1895      1     19     95      0.5508E-01      0.6804E+06
   1896      1     19     96      0.6197E-01      0.6804E+06
   1897      1     19     97      0.6685E-01      0.6804E+06
   1898      1     19     98      0.6967E-01      0.6804E+06
   1899      1     19     99      0.7151E-01      0.6804E+06
   1900      1     19    100      0.7148E-01      0.6804E+06
   1901      1     20      1      0.5212          0.6804E+06
   1902      1     20      2      0.5070          0.6804E+06
   1903      1     20      3      0.4923          0.6804E+06
   1904      1     20      4      0.4771          0.6804E+06
   1905      1     20      5      0.4665          0.6804E+06
   1906      1     20      6      0.4589          0.6804E+06
   1907      1     20      7      0.4486          0.6804E+06
   1908      1     20      8      0.4348          0.6804E+06
   1909      1     20      9      0.4189          0.6804E+06
   1910      1     20     10      0.3970          0.6804E+06
   1911      1     20     11      0.3752          0.6804E+06
   1912      1     20     12      0.3487          0.6804E+06
   1913      1     20     13      0.3223          0.6804E+06
   1914      1     20     14      0.3000          0.6804E+06
   1915      1     20     15      0.2755          0.6804E+06
   1916      1     20     16      0.2546          0.6804E+06
   1917      1     20     17      0.2317          0.6804E+06
   1918      1     20     18      0.2100          0.6804E+06
   1919      1     20     19      0.1921          0.6804E+06
   1920      1     20     20      0.1726          0.6804E+06
   1921      1     20     21      0.1514          0.6804E+06
   1922      1     20     22      0.1320          0.6804E+06
   1923      1     20     23      0.1095          0.6804E+06
   1924      1     20     24      0.8968E-01      0.6804E+06
   1925      1     20     25      0.6781E-01      0.6804E+06
   1926      1     20     26      0.5087E-01      0.6804E+06
   1927      1     20     27      0.4460E-01      0.6804E+06
   1928      1     20     28      0.4977E-01      0.6804E+06
   1929      1     20     29      0.4771E-01      0.6804E+06
   1930      1     20     30      0.4847E-01      0.6804E+06
   1931      1     20     31      0.5406E-01      0.6804E+06
   1932      1     20     32      0.6286E-01      0.6804E+06
   1933      1     20     33      0.7250E-01      0.6804E+06
   1934      1     20     34      0.7727E-01      0.6804E+06
   1935      1     20     35      0.7922E-01      0.6804E+06
   1936      1     20     36      0.7916E-01      0.6804E+06
   1937      1     20     37      0.7646E-01      0.6804E+06
   1938      1     20     38      0.7621E-01      0.6804E+06
   1939      1     20     39      0.7841E-01      0.6804E+06
   1940      1     20     40      0.8075E-01      0.6804E+06
   1941      1     20     41      0.8079E-01      0.6804E+06
   1942      1     20     42      0.7755E-01      0.6804E+06
   1943      1     20     43      0.7669E-01      0.6804E+06
   1944      1     20     44      0.7909E-01      0.6804E+06
   1945      1     20     45      0.8425E-01      0.6804E+06
   1946      1     20     46      0.8734E-01      0.6804E+06
   1947      1     20     47      0.8883E-01      0.6804E+06
   1948      1     20     51      0.8471E-01      0.6804E+06
   1949      1     20     52      0.8441E-01      0.6804E+06
   1950      1     20     53      0.8326E-01      0.6804E+06
   1951      1     20     54      0.8101E-01      0.6804E+06
   1952      1     20     55      0.7882E-01      0.6804E+06
   1953      1     20     56      0.7735E-01      0.6804E+06
   1954      1     20     57      0.7594E-01      0.6804E+06
   1955      1     20     58      0.7366E-01      0.6804E+06
   1956      1     20     59      0.7195E-01      0.6804E+06
   1957      1     20     60      0.6980E-01      0.6804E+06
   1958      1     20     61      0.6777E-01      0.6804E+06
   1959      1     20     62      0.6493E-01      0.6804E+06
   1960      1     20     63      0.6146E-01      0.6804E+06
   1961      1     20     64      0.5748E-01      0.6804E+06
   1962      1     20     65      0.5119E-01      0.6804E+06
   1963      1     20     66      0.4242E-01      0.6804E+06
   1964      1     20     67      0.3469E-01      0.6804E+06
   1965      1     20     68      0.2779E-01      0.6804E+06
   1966      1     20     69      0.2071E-01      0.6804E+06
   1967      1     20     70      0.9427E-02      0.6804E+06
   1968      1     20     71       0.000          0.6804E+06
   1969      1     20     72       0.000          0.6804E+06
   1970      1     20     73       0.000          0.6804E+06
   1971      1     20     74     -0.5225E-01      0.6804E+06
   1972      1     20     75     -0.6646E-01      0.6804E+06
   1973      1     20     76     -0.8003E-01      0.6804E+06
   1974      1     20     77     -0.8980E-01      0.6804E+06
   1975      1     20     78     -0.9913E-01      0.6804E+06
   1976      1     20     79     -0.1119          0.6804E+06
   1977      1     20     80     -0.1193          0.6804E+06
   1978      1     20     81     -0.1278          0.6804E+06
   1979      1     20     82     -0.1351          0.6804E+06
   1980      1     20     83     -0.1553          0.6804E+06
   1981      1     20     84     -0.1670          0.6804E+06
   1982      1     20     85     -0.1711          0.6804E+06
   1983      1     20     86     -0.1401          0.6804E+06
   1984      1     20     87     -0.9201E-01      0.6804E+06
   1985      1     20     88     -0.5229E-01      0.6804E+06
   1986      1     20     89       0.000          0.6804E+06
   1987      1     20     90       0.000          0.6804E+06
   1988      1     20     91      0.7465E-02      0.6804E+06
   1989      1     20     92      0.2308E-01      0.6804E+06
   1990      1     20     93      0.3655E-01      0.6804E+06
   1991      1     20     94      0.4974E-01      0.6804E+06
   1992      1     20     95      0.5962E-01      0.6804E+06
   1993      1     20     96      0.6572E-01      0.6804E+06
   1994      1     20     97      0.7040E-01      0.6804E+06
   1995      1     20     98      0.7301E-01      0.6804E+06
   1996      1     20     99      0.7457E-01      0.6804E+06
   1997      1     20    100      0.7499E-01      0.6804E+06
   1998      1     21      1      0.5283          0.6804E+06
   1999      1     21      2      0.5123          0.6804E+06
   2000      1     21      3      0.4940          0.6804E+06
   2001      1     21      4      0.4748          0.6804E+06
   2002      1     21      5      0.4628          0.6804E+06
   2003      1     21      6      0.4548          0.6804E+06
   2004      1     21      7      0.4436          0.6804E+06
   2005      1     21      8      0.4298          0.6804E+06
   2006      1     21      9      0.4154          0.6804E+06
   2007      1     21     10      0.3965          0.6804E+06
   2008      1     21     11      0.3781          0.6804E+06
   2009      1     21     12      0.3558          0.6804E+06
   2010      1     21     13      0.3322          0.6804E+06
   2011      1     21     14      0.3099          0.6804E+06
   2012      1     21     15      0.2825          0.6804E+06
   2013      1     21     16      0.2579          0.6804E+06
   2014      1     21     17      0.2310          0.6804E+06
   2015      1     21     18      0.2059          0.6804E+06
   2016      1     21     19      0.1857          0.6804E+06
   2017      1     21     20      0.1643          0.6804E+06
   2018      1     21     21      0.1420          0.6804E+06
   2019      1     21     22      0.1219          0.6804E+06
   2020      1     21     23      0.9860E-01      0.6804E+06
   2021      1     21     24      0.7769E-01      0.6804E+06
   2022      1     21     25      0.5323E-01      0.6804E+06
   2023      1     21     26      0.2662E-01      0.6804E+06
   2024      1     21     27      0.1951E-01      0.6804E+06
   2025      1     21     28      0.4433E-01      0.6804E+06
   2026      1     21     29      0.2549E-01      0.6804E+06
   2027      1     21     30      0.2099E-01      0.6804E+06
   2028      1     21     31      0.2971E-01      0.6804E+06
   2029      1     21     32      0.4322E-01      0.6804E+06
   2030      1     21     33      0.5650E-01      0.6804E+06
   2031      1     21     34      0.6593E-01      0.6804E+06
   2032      1     21     35      0.7071E-01      0.6804E+06
   2033      1     21     36      0.7173E-01      0.6804E+06
   2034      1     21     37      0.6967E-01      0.6804E+06
   2035      1     21     38      0.6856E-01      0.6804E+06
   2036      1     21     39      0.6954E-01      0.6804E+06
   2037      1     21     40      0.7109E-01      0.6804E+06
   2038      1     21     41      0.6987E-01      0.6804E+06
   2039      1     21     56      0.6843E-01      0.6804E+06
   2040      1     21     57      0.6701E-01      0.6804E+06
   2041      1     21     58      0.6502E-01      0.6804E+06
   2042      1     21     59      0.6282E-01      0.6804E+06
   2043      1     21     60      0.5955E-01      0.6804E+06
   2044      1     21     61      0.5637E-01      0.6804E+06
   2045      1     21     62      0.5239E-01      0.6804E+06
   2046      1     21     63      0.4805E-01      0.6804E+06
   2047      1     21     64      0.4269E-01      0.6804E+06
   2048      1     21     65      0.3382E-01      0.6804E+06
   2049      1     21     66      0.2187E-01      0.6804E+06
   2050      1     21     67      0.1296E-01      0.6804E+06
   2051      1     21     68      0.5722E-02      0.6804E+06
   2052      1     21     69       0.000          0.6804E+06
   2053      1     21     70       0.000          0.6804E+06
   2054      1     21     71       0.000          0.6804E+06
   2055      1     21     72     -0.5984E-01      0.6804E+06
   2056      1     21     73     -0.7586E-01      0.6804E+06
   2057      1     21     74     -0.8862E-01      0.6804E+06
   2058      1     21     75     -0.9608E-01      0.6804E+06
   2059      1     21     76     -0.1089          0.6804E+06
   2060      1     21     77     -0.1181          0.6804E+06
   2061      1     21     78     -0.1232          0.6804E+06
   2062      1     21     79     -0.1322          0.6804E+06
   2063      1     21     80     -0.1400          0.6804E+06
   2064      1     21     81     -0.1672          0.6804E+06
   2065      1     21     82     -0.2166          0.6804E+06
   2066      1     21     83     -0.2055          0.6804E+06
   2067      1     21     84     -0.1453          0.6804E+06
   2068      1     21     85     -0.1382          0.6804E+06
   2069      1     21     86     -0.8910E-01      0.6804E+06
   2070      1     21     87     -0.4775E-01      0.6804E+06
   2071      1     21     88       0.000          0.6804E+06
   2072      1     21     89       0.000          0.6804E+06
   2073      1     21     90      0.1509E-01      0.6804E+06
   2074      1     21     91      0.2457E-01      0.6804E+06
   2075      1     21     92      0.3599E-01      0.6804E+06
   2076      1     21     93      0.4528E-01      0.6804E+06
   2077      1     21     94      0.5461E-01      0.6804E+06
   2078      1     21     95      0.6213E-01      0.6804E+06
   2079      1     21     96      0.6685E-01      0.6804E+06
   2080      1     21     97      0.7109E-01      0.6804E+06
   2081      1     21     98      0.7354E-01      0.6804E+06
   2082      1     21     99      0.7491E-01      0.6804E+06
   2083      1     21    100      0.7587E-01      0.6804E+06
   2084      1     22      1      0.5397          0.6804E+06
   2085      1     22      2      0.5251          0.6804E+06
   2086      1     22      3      0.5058          0.6804E+06
   2087      1     22      4      0.4843          0.6804E+06
   2088      1     22      5      0.4680          0.6804E+06
   2089      1     22      6      0.4561          0.6804E+06
   2090      1     22      7      0.4421          0.6804E+06
   2091      1     22      8      0.4279          0.6804E+06
   2092      1     22      9      0.4141          0.6804E+06
   2093      1     22     10      0.3970          0.6804E+06
   2094      1     22     11      0.3808          0.6804E+06
   2095      1     22     12      0.3618          0.6804E+06
   2096      1     22     13      0.3414          0.6804E+06
   2097      1     22     14      0.3195          0.6804E+06
   2098      1     22     15      0.2880          0.6804E+06
   2099      1     22     16      0.2597          0.6804E+06
   2100      1     22     17      0.2289          0.6804E+06
   2101      1     22     18      0.2005          0.6804E+06
   2102      1     22     19      0.1781          0.6804E+06
   2103      1     22     20      0.1552          0.6804E+06
   2104      1     22     21      0.1331          0.6804E+06
   2105      1     22     22      0.1138          0.6804E+06
   2106      1     22     23      0.9152E-01      0.6804E+06
   2107      1     22     24      0.7177E-01      0.6804E+06
   2108      1     22     25      0.5003E-01      0.6804E+06
   2109      1     22     26      0.3170E-01      0.6804E+06
   2110      1     22     27      0.1332E-01      0.6804E+06
   2111      1     22     28      0.2628E-01      0.6804E+06
   2112      1     22     29       0.000          0.6804E+06
   2113      1     22     30       0.000          0.6804E+06
   2114      1     22     31      0.1089E-01      0.6804E+06
   2115      1     22     32      0.3030E-01      0.6804E+06
   2116      1     22     33      0.4736E-01      0.6804E+06
   2117      1     22     34      0.5962E-01      0.6804E+06
   2118      1     22     35      0.6580E-01      0.6804E+06
   2119      1     22     36      0.6719E-01      0.6804E+06
   2120      1     22     37      0.6602E-01      0.6804E+06
   2121      1     22     38      0.6520E-01      0.6804E+06
   2122      1     22     39      0.6522E-01      0.6804E+06
   2123      1     22     40      0.6541E-01      0.6804E+06
   2124      1     22     58      0.5167E-01      0.6804E+06
   2125      1     22     59      0.4858E-01      0.6804E+06
   2126      1     22     60      0.4324E-01      0.6804E+06
   2127      1     22     61      0.3784E-01      0.6804E+06
   2128      1     22     62      0.3180E-01      0.6804E+06
   2129      1     22     63      0.2760E-01      0.6804E+06
   2130      1     22     64      0.2118E-01      0.6804E+06
   2131      1     22     65      0.1040E-01      0.6804E+06
   2132      1     22     66       0.000          0.6804E+06
   2133      1     22     67       0.000          0.6804E+06
   2134      1     22     68       0.000          0.6804E+06
   2135      1     22     69     -0.5388E-01      0.6804E+06
   2136      1     22     70     -0.7121E-01      0.6804E+06
   2137      1     22     71     -0.8543E-01      0.6804E+06
   2138      1     22     72     -0.9678E-01      0.6804E+06
   2139      1     22     73     -0.1098          0.6804E+06
   2140      1     22     74     -0.1186          0.6804E+06
   2141      1     22     75     -0.1246          0.6804E+06
   2142      1     22     76     -0.1308          0.6804E+06
   2143      1     22     77     -0.1319          0.6804E+06
   2144      1     22     78     -0.1394          0.6804E+06
   2145      1     22     79     -0.1773          0.6804E+06
   2146      1     22     80     -0.2159          0.6804E+06
   2147      1     22     81     -0.1942          0.6804E+06
   2148      1     22     82     -0.1955          0.6804E+06
   2149      1     22     83     -0.1474          0.6804E+06
   2150      1     22     84     -0.1060          0.6804E+06
   2151      1     22     85     -0.6993E-01      0.6804E+06
   2152      1     22     86       0.000          0.6804E+06
   2153      1     22     87       0.000          0.6804E+06
   2154      1     22     88       0.000          0.6804E+06
   2155      1     22     89      0.1211E-01      0.6804E+06
   2156      1     22     90      0.2588E-01      0.6804E+06
   2157      1     22     91      0.3478E-01      0.6804E+06
   2158      1     22     92      0.4396E-01      0.6804E+06
   2159      1     22     93      0.5101E-01      0.6804E+06
   2160      1     22     94      0.5786E-01      0.6804E+06
   2161      1     22     95      0.6308E-01      0.6804E+06
   2162      1     22     96      0.6635E-01      0.6804E+06
   2163      1     22     97      0.6944E-01      0.6804E+06
   2164      1     22     98      0.7140E-01      0.6804E+06
   2165      1     22     99      0.7274E-01      0.6804E+06
   2166      1     22    100      0.7385E-01      0.6804E+06
   2167      1     23      1      0.5520          0.6804E+06
   2168      1     23      2      0.5408          0.6804E+06
   2169      1     23      3      0.5202          0.6804E+06
   2170      1     23      4      0.4966          0.6804E+06
   2171      1     23      5      0.4765          0.6804E+06
   2172      1     23      6      0.4610          0.6804E+06
   2173      1     23      7      0.4440          0.6804E+06
   2174      1     23      8      0.4285          0.6804E+06
   2175      1     23      9      0.4144          0.6804E+06
   2176      1     23     10      0.3974          0.6804E+06
   2177      1     23     11      0.3819          0.6804E+06
   2178      1     23     12      0.3644          0.6804E+06
   2179      1     23     13      0.3474          0.6804E+06
   2180      1     23     14      0.3260          0.6804E+06
   2181      1     23     15      0.2897          0.6804E+06
   2182      1     23     16      0.2587          0.6804E+06
   2183      1     23     17      0.2254          0.6804E+06
   2184      1     23     18      0.1947          0.6804E+06
   2185      1     23     19      0.1708          0.6804E+06
   2186      1     23     20      0.1478          0.6804E+06
   2187      1     23     21      0.1265          0.6804E+06
   2188      1     23     22      0.1084          0.6804E+06
   2189      1     23     23      0.8793E-01      0.6804E+06
   2190      1     23     24      0.7006E-01      0.6804E+06
   2191      1     23     25      0.5140E-01      0.6804E+06
   2192      1     23     26      0.3883E-01      0.6804E+06
   2193      1     23     27      0.2785E-01      0.6804E+06
   2194      1     23     28       0.000          0.6804E+06
   2195      1     23     29       0.000          0.6804E+06
   2196      1     23     30       0.000          0.6804E+06
   2197      1     23     31      0.9357E-02      0.6804E+06
   2198      1     23     32      0.2478E-01      0.6804E+06
   2199      1     23     33      0.4210E-01      0.6804E+06
   2200      1     23     34      0.5482E-01      0.6804E+06
   2201      1     23     35      0.6166E-01      0.6804E+06
   2202      1     23     36      0.6455E-01      0.6804E+06
   2203      1     23     37      0.6526E-01      0.6804E+06
   2204      1     23     38      0.6508E-01      0.6804E+06
   2205      1     23     59      0.3087E-01      0.6804E+06
   2206      1     23     60      0.2388E-01      0.6804E+06
   2207      1     23     61      0.1734E-01      0.6804E+06
   2208      1     23     62      0.9759E-02      0.6804E+06
   2209      1     23     63      0.3691E-04      0.6804E+06
   2210      1     23     64       0.000          0.6804E+06
   2211      1     23     65       0.000          0.6804E+06
   2212      1     23     66       0.000          0.6804E+06
   2213      1     23     67     -0.6429E-01      0.6804E+06
   2214      1     23     68     -0.7789E-01      0.6804E+06
   2215      1     23     69     -0.8895E-01      0.6804E+06
   2216      1     23     70     -0.9971E-01      0.6804E+06
   2217      1     23     71     -0.1150          0.6804E+06
   2218      1     23     72     -0.1293          0.6804E+06
   2219      1     23     73     -0.1382          0.6804E+06
   2220      1     23     74     -0.1395          0.6804E+06
   2221      1     23     75     -0.1378          0.6804E+06
   2222      1     23     76     -0.1377          0.6804E+06
   2223      1     23     77     -0.1564          0.6804E+06
   2224      1     23     78     -0.1950          0.6804E+06
   2225      1     23     79     -0.2110          0.6804E+06
   2226      1     23     80     -0.1932          0.6804E+06
   2227      1     23     81     -0.1496          0.6804E+06
   2228      1     23     82     -0.1241          0.6804E+06
   2229      1     23     83     -0.1013          0.6804E+06
   2230      1     23     84     -0.5873E-01      0.6804E+06
   2231      1     23     85       0.000          0.6804E+06
   2232      1     23     86       0.000          0.6804E+06
   2233      1     23     87       0.000          0.6804E+06
   2234      1     23     88      0.6357E-02      0.6804E+06
   2235      1     23     89      0.2101E-01      0.6804E+06
   2236      1     23     90      0.3282E-01      0.6804E+06
   2237      1     23     91      0.4095E-01      0.6804E+06
   2238      1     23     92      0.4867E-01      0.6804E+06
   2239      1     23     93      0.5437E-01      0.6804E+06
   2240      1     23     94      0.5959E-01      0.6804E+06
   2241      1     23     95      0.6295E-01      0.6804E+06
   2242      1     23     96      0.6479E-01      0.6804E+06
   2243      1     23     97      0.6647E-01      0.6804E+06
   2244      1     23     98      0.6781E-01      0.6804E+06
   2245      1     23     99      0.6939E-01      0.6804E+06
   2246      1     23    100      0.7081E-01      0.6804E+06
   2247      1     24      1      0.5624          0.6804E+06
   2248      1     24      2      0.5533          0.6804E+06
   2249      1     24      3      0.5331          0.6804E+06
   2250      1     24      4      0.5089          0.6804E+06
   2251      1     24      5      0.4865          0.6804E+06
   2252      1     24      6      0.4684          0.6804E+06
   2253      1     24      7      0.4489          0.6804E+06
   2254      1     24      8      0.4311          0.6804E+06
   2255      1     24      9      0.4154          0.6804E+06
   2256      1     24     10      0.3970          0.6804E+06
   2257      1     24     11      0.3804          0.6804E+06
   2258      1     24     12      0.3613          0.6804E+06
   2259      1     24     13      0.3411          0.6804E+06
   2260      1     24     14      0.3183          0.6804E+06
   2261      1     24     15      0.2838          0.6804E+06
   2262      1     24     16      0.2530          0.6804E+06
   2263      1     24     17      0.2191          0.6804E+06
   2264      1     24     18      0.1875          0.6804E+06
   2265      1     24     19      0.1630          0.6804E+06
   2266      1     24     20      0.1408          0.6804E+06
   2267      1     24     21      0.1210          0.6804E+06
   2268      1     24     22      0.1045          0.6804E+06
   2269      1     24     23      0.8624E-01      0.6804E+06
   2270      1     24     24      0.7046E-01      0.6804E+06
   2271      1     24     25      0.5300E-01      0.6804E+06
   2272      1     24     26      0.3452E-01      0.6804E+06
   2273      1     24     27      0.1671E-01      0.6804E+06
   2274      1     24     28       0.000          0.6804E+06
   2275      1     24     29       0.000          0.6804E+06
   2276      1     24     30       0.000          0.6804E+06
   2277      1     24     31      0.8186E-02      0.6804E+06
   2278      1     24     32      0.2327E-01      0.6804E+06
   2279      1     24     33      0.3770E-01      0.6804E+06
   2280      1     24     34      0.4867E-01      0.6804E+06
   2281      1     24     35      0.5470E-01      0.6804E+06
   2282      1     24     36      0.5938E-01      0.6804E+06
   2283      1     24     37      0.6178E-01      0.6804E+06
   2284      1     24     59      0.2941E-02      0.6804E+06
   2285      1     24     60       0.000          0.6804E+06
   2286      1     24     61       0.000          0.6804E+06
   2287      1     24     62       0.000          0.6804E+06
   2288      1     24     63       0.000          0.6804E+06
   2289      1     24     64     -0.6944E-01      0.6804E+06
   2290      1     24     65     -0.8212E-01      0.6804E+06
   2291      1     24     66     -0.9335E-01      0.6804E+06
   2292      1     24     67     -0.1019          0.6804E+06
   2293      1     24     68     -0.1167          0.6804E+06
   2294      1     24     69     -0.1275          0.6804E+06
   2295      1     24     70     -0.1398          0.6804E+06
   2296      1     24     71     -0.1495          0.6804E+06
   2297      1     24     72     -0.1539          0.6804E+06
   2298      1     24     73     -0.1523          0.6804E+06
   2299      1     24     74     -0.1554          0.6804E+06
   2300      1     24     75     -0.1661          0.6804E+06
   2301      1     24     76     -0.1933          0.6804E+06
   2302      1     24     77     -0.1703          0.6804E+06
   2303      1     24     78     -0.1617          0.6804E+06
   2304      1     24     79     -0.1706          0.6804E+06
   2305      1     24     80     -0.1427          0.6804E+06
   2306      1     24     81     -0.1124          0.6804E+06
   2307      1     24     82     -0.9734E-01      0.6804E+06
   2308      1     24     83     -0.6116E-01      0.6804E+06
   2309      1     24     84       0.000          0.6804E+06
   2310      1     24     85       0.000          0.6804E+06
   2311      1     24     86       0.000          0.6804E+06
   2312      1     24     87      0.2322E-02      0.6804E+06
   2313      1     24     88      0.1604E-01      0.6804E+06
   2314      1     24     89      0.2915E-01      0.6804E+06
   2315      1     24     90      0.3942E-01      0.6804E+06
   2316      1     24     91      0.4656E-01      0.6804E+06
   2317      1     24     92      0.5278E-01      0.6804E+06
   2318      1     24     93      0.5706E-01      0.6804E+06
   2319      1     24     94      0.6060E-01      0.6804E+06
   2320      1     24     95      0.6215E-01      0.6804E+06
   2321      1     24     96      0.6236E-01      0.6804E+06
   2322      1     24     97      0.6226E-01      0.6804E+06
   2323      1     24     98      0.6281E-01      0.6804E+06
   2324      1     24     99      0.6511E-01      0.6804E+06
   2325      1     24    100      0.6697E-01      0.6804E+06
   2326      1     25      1      0.5653          0.6804E+06
   2327      1     25      2      0.5549          0.6804E+06
   2328      1     25      3      0.5380          0.6804E+06
   2329      1     25      4      0.5159          0.6804E+06
   2330      1     25      5      0.4937          0.6804E+06
   2331      1     25      6      0.4749          0.6804E+06
   2332      1     25      7      0.4542          0.6804E+06
   2333      1     25      8      0.4340          0.6804E+06
   2334      1     25      9      0.4163          0.6804E+06
   2335      1     25     10      0.3957          0.6804E+06
   2336      1     25     11      0.3771          0.6804E+06
   2337      1     25     12      0.3553          0.6804E+06
   2338      1     25     13      0.3314          0.6804E+06
   2339      1     25     14      0.3072          0.6804E+06
   2340      1     25     15      0.2747          0.6804E+06
   2341      1     25     16      0.2452          0.6804E+06
   2342      1     25     17      0.2125          0.6804E+06
   2343      1     25     18      0.1819          0.6804E+06
   2344      1     25     19      0.1584          0.6804E+06
   2345      1     25     20      0.1368          0.6804E+06
   2346      1     25     21      0.1181          0.6804E+06
   2347      1     25     22      0.1030          0.6804E+06
   2348      1     25     23      0.8645E-01      0.6804E+06
   2349      1     25     24      0.7199E-01      0.6804E+06
   2350      1     25     25      0.5572E-01      0.6804E+06
   2351      1     25     26      0.3935E-01      0.6804E+06
   2352      1     25     27      0.2706E-01      0.6804E+06
   2353      1     25     28      0.1401E-01      0.6804E+06
   2354      1     25     29       0.000          0.6804E+06
   2355      1     25     30       0.000          0.6804E+06
   2356      1     25     31       0.000          0.6804E+06
   2357      1     25     32      0.1571E-01      0.6804E+06
   2358      1     25     33      0.3252E-01      0.6804E+06
   2359      1     25     34      0.3917E-01      0.6804E+06
   2360      1     25     35      0.4461E-01      0.6804E+06
   2361      1     25     36      0.5089E-01      0.6804E+06
   2362      1     25     60     -0.5845E-01      0.6804E+06
   2363      1     25     61     -0.6980E-01      0.6804E+06
   2364      1     25     62     -0.8115E-01      0.6804E+06
   2365      1     25     63     -0.9852E-01      0.6804E+06
   2366      1     25     64     -0.1112          0.6804E+06
   2367      1     25     65     -0.1245          0.6804E+06
   2368      1     25     66     -0.1429          0.6804E+06
   2369      1     25     67     -0.1540          0.6804E+06
   2370      1     25     68     -0.1563          0.6804E+06
   2371      1     25     69     -0.1533          0.6804E+06
   2372      1     25     70     -0.1554          0.6804E+06
   2373      1     25     71     -0.1575          0.6804E+06
   2374      1     25     72     -0.1625          0.6804E+06
   2375      1     25     73     -0.1936          0.6804E+06
   2376      1     25     74     -0.2176          0.6804E+06
   2377      1     25     75     -0.2075          0.6804E+06
   2378      1     25     76     -0.1673          0.6804E+06
   2379      1     25     77     -0.1284          0.6804E+06
   2380      1     25     78     -0.1172          0.6804E+06
   2381      1     25     79     -0.1462          0.6804E+06
   2382      1     25     80     -0.1218          0.6804E+06
   2383      1     25     81     -0.9369E-01      0.6804E+06
   2384      1     25     82     -0.6169E-01      0.6804E+06
   2385      1     25     83       0.000          0.6804E+06
   2386      1     25     84       0.000          0.6804E+06
   2387      1     25     85       0.000          0.6804E+06
   2388      1     25     86       0.000          0.6804E+06
   2389      1     25     87      0.1247E-01      0.6804E+06
   2390      1     25     88      0.2401E-01      0.6804E+06
   2391      1     25     89      0.3567E-01      0.6804E+06
   2392      1     25     90      0.4502E-01      0.6804E+06
   2393      1     25     91      0.5082E-01      0.6804E+06
   2394      1     25     92      0.5601E-01      0.6804E+06
   2395      1     25     93      0.5913E-01      0.6804E+06
   2396      1     25     94      0.6110E-01      0.6804E+06
   2397      1     25     95      0.6148E-01      0.6804E+06
   2398      1     25     96      0.6053E-01      0.6804E+06
   2399      1     25     97      0.5908E-01      0.6804E+06
   2400      1     25     98      0.5901E-01      0.6804E+06
   2401      1     25     99      0.6198E-01      0.6804E+06
   2402      1     25    100      0.6405E-01      0.6804E+06
   2403      1     26      1      0.5662          0.6804E+06
   2404      1     26      2      0.5547          0.6804E+06
   2405      1     26      3      0.5400          0.6804E+06
   2406      1     26      4      0.5203          0.6804E+06
   2407      1     26      5      0.4994          0.6804E+06
   2408      1     26      6      0.4808          0.6804E+06
   2409      1     26      7      0.4592          0.6804E+06
   2410      1     26      8      0.4370          0.6804E+06
   2411      1     26      9      0.4169          0.6804E+06
   2412      1     26     10      0.3932          0.6804E+06
   2413      1     26     11      0.3718          0.6804E+06
   2414      1     26     12      0.3464          0.6804E+06
   2415      1     26     13      0.3195          0.6804E+06
   2416      1     26     14      0.2940          0.6804E+06
   2417      1     26     15      0.2625          0.6804E+06
   2418      1     26     16      0.2345          0.6804E+06
   2419      1     26     17      0.2036          0.6804E+06
   2420      1     26     18      0.1750          0.6804E+06
   2421      1     26     19      0.1534          0.6804E+06
   2422      1     26     20      0.1329          0.6804E+06
   2423      1     26     21      0.1157          0.6804E+06
   2424      1     26     22      0.1024          0.6804E+06
   2425      1     26     23      0.8794E-01      0.6804E+06
   2426      1     26     24      0.7524E-01      0.6804E+06
   2427      1     26     25      0.6133E-01      0.6804E+06
   2428      1     26     26      0.4701E-01      0.6804E+06
   2429      1     26     27      0.3422E-01      0.6804E+06
   2430      1     26     28      0.2046E-01      0.6804E+06
   2431      1     26     29      0.3216E-02      0.6804E+06
   2432      1     26     30      0.6492E-02      0.6804E+06
   2433      1     26     31      0.1430E-01      0.6804E+06
   2434      1     26     32      0.1045E-01      0.6804E+06
   2435      1     26     33      0.1367E-01      0.6804E+06
   2436      1     26     34      0.2058E-01      0.6804E+06
   2437      1     26     35      0.2278E-01      0.6804E+06
   2438      1     26     36      0.3259E-01      0.6804E+06
   2439      1     26     60     -0.1136          0.6804E+06
   2440      1     26     61     -0.1314          0.6804E+06
   2441      1     26     62     -0.1392          0.6804E+06
   2442      1     26     63     -0.1579          0.6804E+06
   2443      1     26     64     -0.1656          0.6804E+06
   2444      1     26     65     -0.1685          0.6804E+06
   2445      1     26     66     -0.1647          0.6804E+06
   2446      1     26     67     -0.1576          0.6804E+06
   2447      1     26     68     -0.1543          0.6804E+06
   2448      1     26     69     -0.1562          0.6804E+06
   2449      1     26     70     -0.1770          0.6804E+06
   2450      1     26     71     -0.2020          0.6804E+06
   2451      1     26     72     -0.2427          0.6804E+06
   2452      1     26     73     -0.2004          0.6804E+06
   2453      1     26     74     -0.1797          0.6804E+06
   2454      1     26     75     -0.1721          0.6804E+06
   2455      1     26     76     -0.1524          0.6804E+06
   2456      1     26     77     -0.1368          0.6804E+06
   2457      1     26     78     -0.1045          0.6804E+06
   2458      1     26     79     -0.1009          0.6804E+06
   2459      1     26     80     -0.8650E-01      0.6804E+06
   2460      1     26     81     -0.5502E-01      0.6804E+06
   2461      1     26     82       0.000          0.6804E+06
   2462      1     26     83       0.000          0.6804E+06
   2463      1     26     84       0.000          0.6804E+06
   2464      1     26     85      0.3170E-02      0.6804E+06
   2465      1     26     86      0.1374E-01      0.6804E+06
   2466      1     26     87      0.2449E-01      0.6804E+06
   2467      1     26     88      0.3370E-01      0.6804E+06
   2468      1     26     89      0.4341E-01      0.6804E+06
   2469      1     26     90      0.5110E-01      0.6804E+06
   2470      1     26     91      0.5584E-01      0.6804E+06
   2471      1     26     92      0.5959E-01      0.6804E+06
   2472      1     26     93      0.6149E-01      0.6804E+06
   2473      1     26     94      0.6230E-01      0.6804E+06
   2474      1     26     95      0.6188E-01      0.6804E+06
   2475      1     26     96      0.6060E-01      0.6804E+06
   2476      1     26     97      0.5918E-01      0.6804E+06
   2477      1     26     98      0.5893E-01      0.6804E+06
   2478      1     26     99      0.6070E-01      0.6804E+06
   2479      1     26    100      0.6231E-01      0.6804E+06
   2480      1     27      1      0.5670          0.6804E+06
   2481      1     27      2      0.5548          0.6804E+06
   2482      1     27      3      0.5411          0.6804E+06
   2483      1     27      4      0.5230          0.6804E+06
   2484      1     27      5      0.5033          0.6804E+06
   2485      1     27      6      0.4853          0.6804E+06
   2486      1     27      7      0.4633          0.6804E+06
   2487      1     27      8      0.4393          0.6804E+06
   2488      1     27      9      0.4168          0.6804E+06
   2489      1     27     10      0.3899          0.6804E+06
   2490      1     27     11      0.3657          0.6804E+06
   2491      1     27     12      0.3373          0.6804E+06
   2492      1     27     13      0.3080          0.6804E+06
   2493      1     27     14      0.2813          0.6804E+06
   2494      1     27     15      0.2500          0.6804E+06
   2495      1     27     16      0.2230          0.6804E+06
   2496      1     27     17      0.1934          0.6804E+06
   2497      1     27     18      0.1666          0.6804E+06
   2498      1     27     19      0.1470          0.6804E+06
   2499      1     27     20      0.1288          0.6804E+06
   2500      1     27     21      0.1138          0.6804E+06
   2501      1     27     22      0.1025          0.6804E+06
   2502      1     27     23      0.9048E-01      0.6804E+06
   2503      1     27     24      0.7985E-01      0.6804E+06
   2504      1     27     25      0.6826E-01      0.6804E+06
   2505      1     27     26      0.5537E-01      0.6804E+06
   2506      1     27     27      0.4182E-01      0.6804E+06
   2507      1     27     28      0.2446E-01      0.6804E+06
   2508      1     27     29      0.7162E-02      0.6804E+06
   2509      1     27     30      0.1566E-02      0.6804E+06
   2510      1     27     31       0.000          0.6804E+06
   2511      1     27     32       0.000          0.6804E+06
   2512      1     27     33      0.7411E-02      0.6804E+06
   2513      1     27     34      0.1019E-01      0.6804E+06
   2514      1     27     35      0.9729E-02      0.6804E+06
   2515      1     27     60     -0.1669          0.6804E+06
   2516      1     27     61     -0.1695          0.6804E+06
   2517      1     27     62     -0.1695          0.6804E+06
   2518      1     27     63     -0.1640          0.6804E+06
   2519      1     27     64     -0.1552          0.6804E+06
   2520      1     27     65     -0.1487          0.6804E+06
   2521      1     27     66     -0.1467          0.6804E+06
   2522      1     27     67     -0.1566          0.6804E+06
   2523      1     27     68     -0.1705          0.6804E+06
   2524      1     27     69     -0.1952          0.6804E+06
   2525      1     27     70     -0.2166          0.6804E+06
   2526      1     27     71     -0.1907          0.6804E+06
   2527      1     27     72     -0.1551          0.6804E+06
   2528      1     27     73     -0.1254          0.6804E+06
   2529      1     27     74     -0.1171          0.6804E+06
   2530      1     27     75     -0.1069          0.6804E+06
   2531      1     27     76     -0.1040          0.6804E+06
   2532      1     27     77     -0.1249          0.6804E+06
   2533      1     27     78     -0.1072          0.6804E+06
   2534      1     27     79     -0.8735E-01      0.6804E+06
   2535      1     27     80       0.000          0.6804E+06
   2536      1     27     81       0.000          0.6804E+06
   2537      1     27     82       0.000          0.6804E+06
   2538      1     27     83       0.000          0.6804E+06
   2539      1     27     84      0.8255E-02      0.6804E+06
   2540      1     27     85      0.1729E-01      0.6804E+06
   2541      1     27     86      0.2705E-01      0.6804E+06
   2542      1     27     87      0.3572E-01      0.6804E+06
   2543      1     27     88      0.4322E-01      0.6804E+06
   2544      1     27     89      0.5101E-01      0.6804E+06
   2545      1     27     90      0.5687E-01      0.6804E+06
   2546      1     27     91      0.6061E-01      0.6804E+06
   2547      1     27     92      0.6297E-01      0.6804E+06
   2548      1     27     93      0.6383E-01      0.6804E+06
   2549      1     27     94      0.6386E-01      0.6804E+06
   2550      1     27     95      0.6304E-01      0.6804E+06
   2551      1     27     96      0.6184E-01      0.6804E+06
   2552      1     27     97      0.6064E-01      0.6804E+06
   2553      1     27     98      0.6021E-01      0.6804E+06
   2554      1     27     99      0.6093E-01      0.6804E+06
   2555      1     27    100      0.6193E-01      0.6804E+06
   2556      1     28      1      0.5681          0.6804E+06
   2557      1     28      2      0.5553          0.6804E+06
   2558      1     28      3      0.5419          0.6804E+06
   2559      1     28      4      0.5244          0.6804E+06
   2560      1     28      5      0.5055          0.6804E+06
   2561      1     28      6      0.4880          0.6804E+06
   2562      1     28      7      0.4664          0.6804E+06
   2563      1     28      8      0.4407          0.6804E+06
   2564      1     28      9      0.4160          0.6804E+06
   2565      1     28     10      0.3865          0.6804E+06
   2566      1     28     11      0.3601          0.6804E+06
   2567      1     28     12      0.3294          0.6804E+06
   2568      1     28     13      0.2984          0.6804E+06
   2569      1     28     14      0.2709          0.6804E+06
   2570      1     28     15      0.2394          0.6804E+06
   2571      1     28     16      0.2126          0.6804E+06
   2572      1     28     17      0.1836          0.6804E+06
   2573      1     28     18      0.1579          0.6804E+06
   2574      1     28     19      0.1401          0.6804E+06
   2575      1     28     20      0.1246          0.6804E+06
   2576      1     28     21      0.1124          0.6804E+06
   2577      1     28     22      0.1032          0.6804E+06
   2578      1     28     23      0.9354E-01      0.6804E+06
   2579      1     28     24      0.8489E-01      0.6804E+06
   2580      1     28     25      0.7478E-01      0.6804E+06
   2581      1     28     26      0.6319E-01      0.6804E+06
   2582      1     28     27      0.5140E-01      0.6804E+06
   2583      1     28     28      0.3795E-01      0.6804E+06
   2584      1     28     29      0.2614E-01      0.6804E+06
   2585      1     28     30      0.1001E-01      0.6804E+06
   2586      1     28     31       0.000          0.6804E+06
   2587      1     28     32       0.000          0.6804E+06
   2588      1     28     33     -0.2370E-01      0.6804E+06
   2589      1     28     34     -0.2966E-01      0.6804E+06
   2590      1     28     35     -0.3834E-01      0.6804E+06
   2591      1     28     60     -0.1601          0.6804E+06
   2592      1     28     61     -0.1565          0.6804E+06
   2593      1     28     62     -0.1534          0.6804E+06
   2594      1     28     63     -0.1489          0.6804E+06
   2595      1     28     64     -0.1477          0.6804E+06
   2596      1     28     65     -0.1612          0.6804E+06
   2597      1     28     66     -0.1845          0.6804E+06
   2598      1     28     67     -0.2015          0.6804E+06
   2599      1     28     68     -0.1858          0.6804E+06
   2600      1     28     69     -0.1682          0.6804E+06
   2601      1     28     70     -0.1525          0.6804E+06
   2602      1     28     71     -0.1304          0.6804E+06
   2603      1     28     72     -0.1094          0.6804E+06
   2604      1     28     73     -0.9369E-01      0.6804E+06
   2605      1     28     74     -0.8945E-01      0.6804E+06
   2606      1     28     75     -0.8233E-01      0.6804E+06
   2607      1     28     76     -0.6371E-01      0.6804E+06
   2608      1     28     77     -0.8235E-01      0.6804E+06
   2609      1     28     78       0.000          0.6804E+06
   2610      1     28     79       0.000          0.6804E+06
   2611      1     28     80       0.000          0.6804E+06
   2612      1     28     81       0.000          0.6804E+06
   2613      1     28     82       0.000          0.6804E+06
   2614      1     28     83      0.4225E-02      0.6804E+06
   2615      1     28     84      0.1971E-01      0.6804E+06
   2616      1     28     85      0.2828E-01      0.6804E+06
   2617      1     28     86      0.3682E-01      0.6804E+06
   2618      1     28     87      0.4423E-01      0.6804E+06
   2619      1     28     88      0.5042E-01      0.6804E+06
   2620      1     28     89      0.5677E-01      0.6804E+06
   2621      1     28     90      0.6140E-01      0.6804E+06
   2622      1     28     91      0.6408E-01      0.6804E+06
   2623      1     28     92      0.6547E-01      0.6804E+06
   2624      1     28     93      0.6569E-01      0.6804E+06
   2625      1     28     94      0.6522E-01      0.6804E+06
   2626      1     28     95      0.6421E-01      0.6804E+06
   2627      1     28     96      0.6312E-01      0.6804E+06
   2628      1     28     97      0.6201E-01      0.6804E+06
   2629      1     28     98      0.6146E-01      0.6804E+06
   2630      1     28     99      0.6161E-01      0.6804E+06
   2631      1     28    100      0.6221E-01      0.6804E+06
   2632      1     29      1      0.5700          0.6804E+06
   2633      1     29      2      0.5563          0.6804E+06
   2634      1     29      3      0.5425          0.6804E+06
   2635      1     29      4      0.5251          0.6804E+06
   2636      1     29      5      0.5063          0.6804E+06
   2637      1     29      6      0.4890          0.6804E+06
   2638      1     29      7      0.4675          0.6804E+06
   2639      1     29      8      0.4403          0.6804E+06
   2640      1     29      9      0.4137          0.6804E+06
   2641      1     29     10      0.3820          0.6804E+06
   2642      1     29     11      0.3536          0.6804E+06
   2643      1     29     12      0.3207          0.6804E+06
   2644      1     29     13      0.2882          0.6804E+06
   2645      1     29     14      0.2600          0.6804E+06
   2646      1     29     15      0.2281          0.6804E+06
   2647      1     29     16      0.2013          0.6804E+06
   2648      1     29     17      0.1726          0.6804E+06
   2649      1     29     18      0.1479          0.6804E+06
   2650      1     29     19      0.1323          0.6804E+06
   2651      1     29     20      0.1201          0.6804E+06
   2652      1     29     21      0.1111          0.6804E+06
   2653      1     29     22      0.1046          0.6804E+06
   2654      1     29     23      0.9788E-01      0.6804E+06
   2655      1     29     24      0.9167E-01      0.6804E+06
   2656      1     29     25      0.8335E-01      0.6804E+06
   2657      1     29     26      0.7366E-01      0.6804E+06
   2658      1     29     27      0.6466E-01      0.6804E+06
   2659      1     29     28      0.5424E-01      0.6804E+06
   2660      1     29     29      0.4269E-01      0.6804E+06
   2661      1     29     30      0.3068E-01      0.6804E+06
   2662      1     29     31      0.1058E-01      0.6804E+06
   2663      1     29     32     -0.2452E-01      0.6804E+06
   2664      1     29     33     -0.6142E-01      0.6804E+06
   2665      1     29     34     -0.1176          0.6804E+06
   2666      1     29     60     -0.1426          0.6804E+06
   2667      1     29     61     -0.1485          0.6804E+06
   2668      1     29     62     -0.1593          0.6804E+06
   2669      1     29     63     -0.1783          0.6804E+06
   2670      1     29     64     -0.1805          0.6804E+06
   2671      1     29     65     -0.1835          0.6804E+06
   2672      1     29     66     -0.1853          0.6804E+06
   2673      1     29     67     -0.1685          0.6804E+06
   2674      1     29     68     -0.1458          0.6804E+06
   2675      1     29     69     -0.1241          0.6804E+06
   2676      1     29     70     -0.1134          0.6804E+06
   2677      1     29     71     -0.1011          0.6804E+06
   2678      1     29     72     -0.7897E-01      0.6804E+06
   2679      1     29     73     -0.6220E-01      0.6804E+06
   2680      1     29     74     -0.6153E-01      0.6804E+06
   2681      1     29     75     -0.5850E-01      0.6804E+06
   2682      1     29     76       0.000          0.6804E+06
   2683      1     29     77       0.000          0.6804E+06
   2684      1     29     78       0.000          0.6804E+06
   2685      1     29     79       0.000          0.6804E+06
   2686      1     29     80       0.000          0.6804E+06
   2687      1     29     81       0.000          0.6804E+06
   2688      1     29     82       0.000          0.6804E+06
   2689      1     29     83      0.1538E-01      0.6804E+06
   2690      1     29     84      0.2834E-01      0.6804E+06
   2691      1     29     85      0.3735E-01      0.6804E+06
   2692      1     29     86      0.4524E-01      0.6804E+06
   2693      1     29     87      0.5186E-01      0.6804E+06
   2694      1     29     88      0.5690E-01      0.6804E+06
   2695      1     29     89      0.6171E-01      0.6804E+06
   2696      1     29     90      0.6499E-01      0.6804E+06
   2697      1     29     91      0.6662E-01      0.6804E+06
   2698      1     29     92      0.6732E-01      0.6804E+06
   2699      1     29     93      0.6720E-01      0.6804E+06
   2700      1     29     94      0.6645E-01      0.6804E+06
   2701      1     29     95      0.6533E-01      0.6804E+06
   2702      1     29     96      0.6422E-01      0.6804E+06
   2703      1     29     97      0.6315E-01      0.6804E+06
   2704      1     29     98      0.6261E-01      0.6804E+06
   2705      1     29     99      0.6248E-01      0.6804E+06
   2706      1     29    100      0.6280E-01      0.6804E+06
   2707      1     30      1      0.5723          0.6804E+06
   2708      1     30      2      0.5574          0.6804E+06
   2709      1     30      3      0.5428          0.6804E+06
   2710      1     30      4      0.5247          0.6804E+06
   2711      1     30      5      0.5052          0.6804E+06
   2712      1     30      6      0.4870          0.6804E+06
   2713      1     30      7      0.4642          0.6804E+06
   2714      1     30      8      0.4366          0.6804E+06
   2715      1     30      9      0.4097          0.6804E+06
   2716      1     30     10      0.3771          0.6804E+06
   2717      1     30     11      0.3475          0.6804E+06
   2718      1     30     12      0.3131          0.6804E+06
   2719      1     30     13      0.2793          0.6804E+06
   2720      1     30     14      0.2507          0.6804E+06
   2721      1     30     15      0.2184          0.6804E+06
   2722      1     30     16      0.1913          0.6804E+06
   2723      1     30     17      0.1628          0.6804E+06
   2724      1     30     18      0.1394          0.6804E+06
   2725      1     30     19      0.1259          0.6804E+06
   2726      1     30     20      0.1165          0.6804E+06
   2727      1     30     21      0.1105          0.6804E+06
   2728      1     30     22      0.1066          0.6804E+06
   2729      1     30     23      0.1026          0.6804E+06
   2730      1     30     24      0.9869E-01      0.6804E+06
   2731      1     30     25      0.9259E-01      0.6804E+06
   2732      1     30     26      0.8508E-01      0.6804E+06
   2733      1     30     27      0.7842E-01      0.6804E+06
   2734      1     30     28      0.6991E-01      0.6804E+06
   2735      1     30     29      0.5887E-01      0.6804E+06
   2736      1     30     30      0.4643E-01      0.6804E+06
   2737      1     30     31      0.2974E-01      0.6804E+06
   2738      1     30     32      0.5549E-02      0.6804E+06
   2739      1     30     33     -0.8317E-01      0.6804E+06
   2740      1     30     60     -0.1572          0.6804E+06
   2741      1     30     61     -0.1861          0.6804E+06
   2742      1     30     62     -0.1805          0.6804E+06
   2743      1     30     63     -0.1792          0.6804E+06
   2744      1     30     64     -0.1654          0.6804E+06
   2745      1     30     65     -0.1576          0.6804E+06
   2746      1     30     66     -0.1482          0.6804E+06
   2747      1     30     67     -0.1200          0.6804E+06
   2748      1     30     68     -0.1172          0.6804E+06
   2749      1     30     69     -0.1047          0.6804E+06
   2750      1     30     70     -0.8185E-01      0.6804E+06
   2751      1     30     71     -0.6986E-01      0.6804E+06
   2752      1     30     72     -0.6020E-01      0.6804E+06
   2753      1     30     73     -0.5015E-01      0.6804E+06
   2754      1     30     74       0.000          0.6804E+06
   2755      1     30     75       0.000          0.6804E+06
   2756      1     30     76       0.000          0.6804E+06
   2757      1     30     77       0.000          0.6804E+06
   2758      1     30     78       0.000          0.6804E+06
   2759      1     30     79       0.000          0.6804E+06
   2760      1     30     80       0.000          0.6804E+06
   2761      1     30     81       0.000          0.6804E+06
   2762      1     30     82      0.9039E-02      0.6804E+06
   2763      1     30     83      0.2266E-01      0.6804E+06
   2764      1     30     84      0.3518E-01      0.6804E+06
   2765      1     30     85      0.4412E-01      0.6804E+06
   2766      1     30     86      0.5162E-01      0.6804E+06
   2767      1     30     87      0.5758E-01      0.6804E+06
   2768      1     30     88      0.6165E-01      0.6804E+06
   2769      1     30     89      0.6516E-01      0.6804E+06
   2770      1     30     90      0.6738E-01      0.6804E+06
   2771      1     30     91      0.6840E-01      0.6804E+06
   2772      1     30     92      0.6858E-01      0.6804E+06
   2773      1     30     93      0.6810E-01      0.6804E+06
   2774      1     30     94      0.6714E-01      0.6804E+06
   2775      1     30     95      0.6598E-01      0.6804E+06
   2776      1     30     96      0.6482E-01      0.6804E+06
   2777      1     30     97      0.6374E-01      0.6804E+06
   2778      1     30     98      0.6330E-01      0.6804E+06
   2779      1     30     99      0.6322E-01      0.6804E+06
   2780      1     30    100      0.6326E-01      0.6804E+06
   2781      1     31      1      0.5747          0.6804E+06
   2782      1     31      2      0.5586          0.6804E+06
   2783      1     31      3      0.5430          0.6804E+06
   2784      1     31      4      0.5236          0.6804E+06
   2785      1     31      5      0.5029          0.6804E+06
   2786      1     31      6      0.4835          0.6804E+06
   2787      1     31      7      0.4593          0.6804E+06
   2788      1     31      8      0.4317          0.6804E+06
   2789      1     31      9      0.4053          0.6804E+06
   2790      1     31     10      0.3730          0.6804E+06
   2791      1     31     11      0.3432          0.6804E+06
   2792      1     31     12      0.3081          0.6804E+06
   2793      1     31     13      0.2735          0.6804E+06
   2794      1     31     14      0.2447          0.6804E+06
   2795      1     31     15      0.2117          0.6804E+06
   2796      1     31     16      0.1840          0.6804E+06
   2797      1     31     17      0.1552          0.6804E+06
   2798      1     31     18      0.1327          0.6804E+06
   2799      1     31     19      0.1212          0.6804E+06
   2800      1     31     20      0.1142          0.6804E+06
   2801      1     31     21      0.1107          0.6804E+06
   2802      1     31     22      0.1090          0.6804E+06
   2803      1     31     23      0.1072          0.6804E+06
   2804      1     31     24      0.1047          0.6804E+06
   2805      1     31     25      0.1002          0.6804E+06
   2806      1     31     26      0.9431E-01      0.6804E+06
   2807      1     31     27      0.8889E-01      0.6804E+06
   2808      1     31     28      0.8146E-01      0.6804E+06
   2809      1     31     29      0.7090E-01      0.6804E+06
   2810      1     31     30      0.5776E-01      0.6804E+06
   2811      1     31     31      0.3528E-01      0.6804E+06
   2812      1     31     32      0.6134E-02      0.6804E+06
   2813      1     31     33     -0.9723E-01      0.6804E+06
   2814      1     31     60     -0.1393          0.6804E+06
   2815      1     31     61     -0.1466          0.6804E+06
   2816      1     31     62     -0.1492          0.6804E+06
   2817      1     31     63     -0.1516          0.6804E+06
   2818      1     31     64     -0.1403          0.6804E+06
   2819      1     31     65     -0.1504          0.6804E+06
   2820      1     31     66     -0.1346          0.6804E+06
   2821      1     31     67     -0.9755E-01      0.6804E+06
   2822      1     31     68     -0.9511E-01      0.6804E+06
   2823      1     31     69     -0.8620E-01      0.6804E+06
   2824      1     31     70     -0.6211E-01      0.6804E+06
   2825      1     31     71     -0.5246E-01      0.6804E+06
   2826      1     31     72       0.000          0.6804E+06
   2827      1     31     73       0.000          0.6804E+06
   2828      1     31     74       0.000          0.6804E+06
   2829      1     31     75       0.000          0.6804E+06
   2830      1     31     76       0.000          0.6804E+06
   2831      1     31     77       0.000          0.6804E+06
   2832      1     31     78       0.000          0.6804E+06
   2833      1     31     79       0.000          0.6804E+06
   2834      1     31     80       0.000          0.6804E+06
   2835      1     31     81       0.000          0.6804E+06
   2836      1     31     82      0.1615E-01      0.6804E+06
   2837      1     31     83      0.2860E-01      0.6804E+06
   2838      1     31     84      0.4041E-01      0.6804E+06
   2839      1     31     85      0.4886E-01      0.6804E+06
   2840      1     31     86      0.5607E-01      0.6804E+06
   2841      1     31     87      0.6131E-01      0.6804E+06
   2842      1     31     88      0.6460E-01      0.6804E+06
   2843      1     31     89      0.6714E-01      0.6804E+06
   2844      1     31     90      0.6860E-01      0.6804E+06
   2845      1     31     91      0.6926E-01      0.6804E+06
   2846      1     31     92      0.6919E-01      0.6804E+06
   2847      1     31     93      0.6858E-01      0.6804E+06
   2848      1     31     94      0.6752E-01      0.6804E+06
   2849      1     31     95      0.6632E-01      0.6804E+06
   2850      1     31     96      0.6513E-01      0.6804E+06
   2851      1     31     97      0.6410E-01      0.6804E+06
   2852      1     31     98      0.6385E-01      0.6804E+06
   2853      1     31     99      0.6373E-01      0.6804E+06
   2854      1     31    100      0.6355E-01      0.6804E+06
   2855      1     32      1      0.5779          0.6804E+06
   2856      1     32      2      0.5603          0.6804E+06
   2857      1     32      3      0.5432          0.6804E+06
   2858      1     32      4      0.5223          0.6804E+06
   2859      1     32      5      0.4998          0.6804E+06
   2860      1     32      6      0.4791          0.6804E+06
   2861      1     32      7      0.4540          0.6804E+06
   2862      1     32      8      0.4267          0.6804E+06
   2863      1     32      9      0.4011          0.6804E+06
   2864      1     32     10      0.3698          0.6804E+06
   2865      1     32     11      0.3407          0.6804E+06
   2866      1     32     12      0.3063          0.6804E+06
   2867      1     32     13      0.2716          0.6804E+06
   2868      1     32     14      0.2416          0.6804E+06
   2869      1     32     15      0.2072          0.6804E+06
   2870      1     32     16      0.1779          0.6804E+06
   2871      1     32     17      0.1474          0.6804E+06
   2872      1     32     18      0.1244          0.6804E+06
   2873      1     32     19      0.1160          0.6804E+06
   2874      1     32     20      0.1127          0.6804E+06
   2875      1     32     21      0.1123          0.6804E+06
   2876      1     32     22      0.1126          0.6804E+06
   2877      1     32     23      0.1128          0.6804E+06
   2878      1     32     24      0.1111          0.6804E+06
   2879      1     32     25      0.1078          0.6804E+06
   2880      1     32     26      0.1035          0.6804E+06
   2881      1     32     27      0.9883E-01      0.6804E+06
   2882      1     32     28      0.9183E-01      0.6804E+06
   2883      1     32     29      0.8132E-01      0.6804E+06
   2884      1     32     30      0.6722E-01      0.6804E+06
   2885      1     32     31      0.4008E-01      0.6804E+06
   2886      1     32     32      0.5005E-02      0.6804E+06
   2887      1     32     59     -0.1228          0.6804E+06
   2888      1     32     60     -0.1187          0.6804E+06
   2889      1     32     61     -0.1189          0.6804E+06
   2890      1     32     62     -0.1090          0.6804E+06
   2891      1     32     63     -0.1122          0.6804E+06
   2892      1     32     64     -0.1184          0.6804E+06
   2893      1     32     65     -0.1213          0.6804E+06
   2894      1     32     66     -0.1004          0.6804E+06
   2895      1     32     67     -0.8122E-01      0.6804E+06
   2896      1     32     68     -0.6775E-01      0.6804E+06
   2897      1     32     69     -0.5838E-01      0.6804E+06
   2898      1     32     70       0.000          0.6804E+06
   2899      1     32     71       0.000          0.6804E+06
   2900      1     32     72       0.000          0.6804E+06
   2901      1     32     73       0.000          0.6804E+06
   2902      1     32     74       0.000          0.6804E+06
   2903      1     32     75       0.000          0.6804E+06
   2904      1     32     76       0.000          0.6804E+06
   2905      1     32     77       0.000          0.6804E+06
   2906      1     32     78       0.000          0.6804E+06
   2907      1     32     79       0.000          0.6804E+06
   2908      1     32     80       0.000          0.6804E+06
   2909      1     32     81       0.000          0.6804E+06
   2910      1     32     82      0.1953E-01      0.6804E+06
   2911      1     32     83      0.3269E-01      0.6804E+06
   2912      1     32     84      0.4489E-01      0.6804E+06
   2913      1     32     85      0.5309E-01      0.6804E+06
   2914      1     32     86      0.5995E-01      0.6804E+06
   2915      1     32     87      0.6416E-01      0.6804E+06
   2916      1     32     88      0.6654E-01      0.6804E+06
   2917      1     32     89      0.6828E-01      0.6804E+06
   2918      1     32     90      0.6913E-01      0.6804E+06
   2919      1     32     91      0.6949E-01      0.6804E+06
   2920      1     32     92      0.6939E-01      0.6804E+06
   2921      1     32     93      0.6886E-01      0.6804E+06
   2922      1     32     94      0.6782E-01      0.6804E+06
   2923      1     32     95      0.6661E-01      0.6804E+06
   2924      1     32     96      0.6550E-01      0.6804E+06
   2925      1     32     97      0.6456E-01      0.6804E+06
   2926      1     32     98      0.6433E-01      0.6804E+06
   2927      1     32     99      0.6422E-01      0.6804E+06
   2928      1     32    100      0.6391E-01      0.6804E+06
   2929      1     33      1      0.5810          0.6804E+06
   2930      1     33      2      0.5620          0.6804E+06
   2931      1     33      3      0.5437          0.6804E+06
   2932      1     33      4      0.5213          0.6804E+06
   2933      1     33      5      0.4973          0.6804E+06
   2934      1     33      6      0.4755          0.6804E+06
   2935      1     33      7      0.4501          0.6804E+06
   2936      1     33      8      0.4234          0.6804E+06
   2937      1     33      9      0.3986          0.6804E+06
   2938      1     33     10      0.3684          0.6804E+06
   2939      1     33     11      0.3403          0.6804E+06
   2940      1     33     12      0.3068          0.6804E+06
   2941      1     33     13      0.2724          0.6804E+06
   2942      1     33     14      0.2419          0.6804E+06
   2943      1     33     15      0.2067          0.6804E+06
   2944      1     33     16      0.1764          0.6804E+06
   2945      1     33     17      0.1449          0.6804E+06
   2946      1     33     18      0.1216          0.6804E+06
   2947      1     33     19      0.1147          0.6804E+06
   2948      1     33     20      0.1135          0.6804E+06
   2949      1     33     21      0.1152          0.6804E+06
   2950      1     33     22      0.1171          0.6804E+06
   2951      1     33     23      0.1176          0.6804E+06
   2952      1     33     24      0.1164          0.6804E+06
   2953      1     33     25      0.1139          0.6804E+06
   2954      1     33     26      0.1104          0.6804E+06
   2955      1     33     27      0.1059          0.6804E+06
   2956      1     33     28      0.9817E-01      0.6804E+06
   2957      1     33     29      0.8677E-01      0.6804E+06
   2958      1     33     30      0.7194E-01      0.6804E+06
   2959      1     33     31      0.4361E-01      0.6804E+06
   2960      1     33     32      0.9645E-02      0.6804E+06
   2961      1     33     59     -0.1126          0.6804E+06
   2962      1     33     60     -0.1104          0.6804E+06
   2963      1     33     61     -0.1023          0.6804E+06
   2964      1     33     62     -0.8346E-01      0.6804E+06
   2965      1     33     63     -0.8191E-01      0.6804E+06
   2966      1     33     64     -0.8904E-01      0.6804E+06
   2967      1     33     65     -0.9325E-01      0.6804E+06
   2968      1     33     66     -0.8452E-01      0.6804E+06
   2969      1     33     67     -0.6535E-01      0.6804E+06
   2970      1     33     68       0.000          0.6804E+06
   2971      1     33     69       0.000          0.6804E+06
   2972      1     33     70       0.000          0.6804E+06
   2973      1     33     71       0.000          0.6804E+06
   2974      1     33     72       0.000          0.6804E+06
   2975      1     33     73       0.000          0.6804E+06
   2976      1     33     74       0.000          0.6804E+06
   2977      1     33     75       0.000          0.6804E+06
   2978      1     33     76       0.000          0.6804E+06
   2979      1     33     77       0.000          0.6804E+06
   2980      1     33     78       0.000          0.6804E+06
   2981      1     33     79       0.000          0.6804E+06
   2982      1     33     80       0.000          0.6804E+06
   2983      1     33     81      0.5161E-02      0.6804E+06
   2984      1     33     82      0.2407E-01      0.6804E+06
   2985      1     33     83      0.3661E-01      0.6804E+06
   2986      1     33     84      0.4812E-01      0.6804E+06
   2987      1     33     85      0.5586E-01      0.6804E+06
   2988      1     33     86      0.6210E-01      0.6804E+06
   2989      1     33     87      0.6533E-01      0.6804E+06
   2990      1     33     88      0.6699E-01      0.6804E+06
   2991      1     33     89      0.6828E-01      0.6804E+06
   2992      1     33     90      0.6901E-01      0.6804E+06
   2993      1     33     91      0.6930E-01      0.6804E+06
   2994      1     33     92      0.6924E-01      0.6804E+06
   2995      1     33     93      0.6885E-01      0.6804E+06
   2996      1     33     94      0.6800E-01      0.6804E+06
   2997      1     33     95      0.6681E-01      0.6804E+06
   2998      1     33     96      0.6583E-01      0.6804E+06
   2999      1     33     97      0.6498E-01      0.6804E+06
   3000      1     33     98      0.6456E-01      0.6804E+06
   3001      1     33     99      0.6449E-01      0.6804E+06
   3002      1     33    100      0.6419E-01      0.6804E+06
   3003      1     34      1      0.5850          0.6804E+06
   3004      1     34      2      0.5644          0.6804E+06
   3005      1     34      3      0.5447          0.6804E+06
   3006      1     34      4      0.5207          0.6804E+06
   3007      1     34      5      0.4952          0.6804E+06
   3008      1     34      6      0.4723          0.6804E+06
   3009      1     34      7      0.4469          0.6804E+06
   3010      1     34      8      0.4209          0.6804E+06
   3011      1     34      9      0.3972          0.6804E+06
   3012      1     34     10      0.3685          0.6804E+06
   3013      1     34     11      0.3417          0.6804E+06
   3014      1     34     12      0.3096          0.6804E+06
   3015      1     34     13      0.2758          0.6804E+06
   3016      1     34     14      0.2450          0.6804E+06
   3017      1     34     15      0.2093          0.6804E+06
   3018      1     34     16      0.1789          0.6804E+06
   3019      1     34     17      0.1476          0.6804E+06
   3020      1     34     18      0.1252          0.6804E+06
   3021      1     34     19      0.1181          0.6804E+06
   3022      1     34     20      0.1171          0.6804E+06
   3023      1     34     21      0.1198          0.6804E+06
   3024      1     34     22      0.1228          0.6804E+06
   3025      1     34     23      0.1239          0.6804E+06
   3026      1     34     24      0.1226          0.6804E+06
   3027      1     34     25      0.1193          0.6804E+06
   3028      1     34     26      0.1146          0.6804E+06
   3029      1     34     27      0.1096          0.6804E+06
   3030      1     34     28      0.1010          0.6804E+06
   3031      1     34     29      0.8853E-01      0.6804E+06
   3032      1     34     30      0.7289E-01      0.6804E+06
   3033      1     34     31      0.4527E-01      0.6804E+06
   3034      1     34     32      0.1356E-01      0.6804E+06
   3035      1     34     58     -0.9494E-01      0.6804E+06
   3036      1     34     59     -0.9613E-01      0.6804E+06
   3037      1     34     60     -0.8755E-01      0.6804E+06
   3038      1     34     61     -0.7797E-01      0.6804E+06
   3039      1     34     62     -0.6027E-01      0.6804E+06
   3040      1     34     63     -0.5935E-01      0.6804E+06
   3041      1     34     64     -0.5738E-01      0.6804E+06
   3042      1     34     65     -0.5644E-01      0.6804E+06
   3043      1     34     66       0.000          0.6804E+06
   3044      1     34     67       0.000          0.6804E+06
   3045      1     34     68       0.000          0.6804E+06
   3046      1     34     69       0.000          0.6804E+06
   3047      1     34     70       0.000          0.6804E+06
   3048      1     34     71       0.000          0.6804E+06
   3049      1     34     72       0.000          0.6804E+06
   3050      1     34     73       0.000          0.6804E+06
   3051      1     34     74       0.000          0.6804E+06
   3052      1     34     75       0.000          0.6804E+06
   3053      1     34     76       0.000          0.6804E+06
   3054      1     34     77       0.000          0.6804E+06
   3055      1     34     78       0.000          0.6804E+06
   3056      1     34     79       0.000          0.6804E+06
   3057      1     34     80       0.000          0.6804E+06
   3058      1     34     81      0.1513E-01      0.6804E+06
   3059      1     34     82      0.2989E-01      0.6804E+06
   3060      1     34     83      0.4100E-01      0.6804E+06
   3061      1     34     84      0.5127E-01      0.6804E+06
   3062      1     34     85      0.5804E-01      0.6804E+06
   3063      1     34     86      0.6300E-01      0.6804E+06
   3064      1     34     87      0.6518E-01      0.6804E+06
   3065      1     34     88      0.6624E-01      0.6804E+06
   3066      1     34     89      0.6742E-01      0.6804E+06
   3067      1     34     90      0.6844E-01      0.6804E+06
   3068      1     34     91      0.6885E-01      0.6804E+06
   3069      1     34     92      0.6879E-01      0.6804E+06
   3070      1     34     93      0.6841E-01      0.6804E+06
   3071      1     34     94      0.6779E-01      0.6804E+06
   3072      1     34     95      0.6675E-01      0.6804E+06
   3073      1     34     96      0.6586E-01      0.6804E+06
   3074      1     34     97      0.6507E-01      0.6804E+06
   3075      1     34     98      0.6465E-01      0.6804E+06
   3076      1     34     99      0.6448E-01      0.6804E+06
   3077      1     34    100      0.6432E-01      0.6804E+06
   3078      1     35      1      0.5898          0.6804E+06
   3079      1     35      2      0.5675          0.6804E+06
   3080      1     35      3      0.5464          0.6804E+06
   3081      1     35      4      0.5210          0.6804E+06
   3082      1     35      5      0.4946          0.6804E+06
   3083      1     35      6      0.4713          0.6804E+06
   3084      1     35      7      0.4457          0.6804E+06
   3085      1     35      8      0.4202          0.6804E+06
   3086      1     35      9      0.3974          0.6804E+06
   3087      1     35     10      0.3702          0.6804E+06
   3088      1     35     11      0.3452          0.6804E+06
   3089      1     35     12      0.3147          0.6804E+06
   3090      1     35     13      0.2817          0.6804E+06
   3091      1     35     14      0.2509          0.6804E+06
   3092      1     35     15      0.2151          0.6804E+06
   3093      1     35     16      0.1847          0.6804E+06
   3094      1     35     17      0.1539          0.6804E+06
   3095      1     35     18      0.1323          0.6804E+06
   3096      1     35     19      0.1239          0.6804E+06
   3097      1     35     20      0.1219          0.6804E+06
   3098      1     35     21      0.1245          0.6804E+06
   3099      1     35     22      0.1281          0.6804E+06
   3100      1     35     23      0.1294          0.6804E+06
   3101      1     35     24      0.1270          0.6804E+06
   3102      1     35     25      0.1216          0.6804E+06
   3103      1     35     26      0.1152          0.6804E+06
   3104      1     35     27      0.1093          0.6804E+06
   3105      1     35     28      0.9887E-01      0.6804E+06
   3106      1     35     29      0.8436E-01      0.6804E+06
   3107      1     35     30      0.6686E-01      0.6804E+06
   3108      1     35     31      0.3778E-01      0.6804E+06
   3109      1     35     58     -0.7246E-01      0.6804E+06
   3110      1     35     59     -0.7209E-01      0.6804E+06
   3111      1     35     60     -0.6612E-01      0.6804E+06
   3112      1     35     61     -0.6193E-01      0.6804E+06
   3113      1     35     62     -0.5152E-01      0.6804E+06
   3114      1     35     63     -0.5240E-01      0.6804E+06
   3115      1     35     64       0.000          0.6804E+06
   3116      1     35     65       0.000          0.6804E+06
   3117      1     35     66       0.000          0.6804E+06
   3118      1     35     67       0.000          0.6804E+06
   3119      1     35     68       0.000          0.6804E+06
   3120      1     35     69       0.000          0.6804E+06
   3121      1     35     70       0.000          0.6804E+06
   3122      1     35     71       0.000          0.6804E+06
   3123      1     35     72       0.000          0.6804E+06
   3124      1     35     73       0.000          0.6804E+06
   3125      1     35     74       0.000          0.6804E+06
   3126      1     35     75       0.000          0.6804E+06
   3127      1     35     76       0.000          0.6804E+06
   3128      1     35     77       0.000          0.6804E+06
   3129      1     35     78       0.000          0.6804E+06
   3130      1     35     79       0.000          0.6804E+06
   3131      1     35     80      0.2748E-02      0.6804E+06
   3132      1     35     81      0.2048E-01      0.6804E+06
   3133      1     35     82      0.3463E-01      0.6804E+06
   3134      1     35     83      0.4484E-01      0.6804E+06
   3135      1     35     84      0.5406E-01      0.6804E+06
   3136      1     35     85      0.5989E-01      0.6804E+06
   3137      1     35     86      0.6347E-01      0.6804E+06
   3138      1     35     87      0.6468E-01      0.6804E+06
   3139      1     35     88      0.6529E-01      0.6804E+06
   3140      1     35     89      0.6646E-01      0.6804E+06
   3141      1     35     90      0.6766E-01      0.6804E+06
   3142      1     35     91      0.6808E-01      0.6804E+06
   3143      1     35     92      0.6808E-01      0.6804E+06
   3144      1     35     93      0.6782E-01      0.6804E+06
   3145      1     35     94      0.6721E-01      0.6804E+06
   3146      1     35     95      0.6632E-01      0.6804E+06
   3147      1     35     96      0.6559E-01      0.6804E+06
   3148      1     35     97      0.6492E-01      0.6804E+06
   3149      1     35     98      0.6446E-01      0.6804E+06
   3150      1     35     99      0.6425E-01      0.6804E+06
   3151      1     35    100      0.6413E-01      0.6804E+06
   3152      1     36      1      0.5945          0.6804E+06
   3153      1     36      2      0.5707          0.6804E+06
   3154      1     36      3      0.5485          0.6804E+06
   3155      1     36      4      0.5221          0.6804E+06
   3156      1     36      5      0.4951          0.6804E+06
   3157      1     36      6      0.4717          0.6804E+06
   3158      1     36      7      0.4458          0.6804E+06
   3159      1     36      8      0.4205          0.6804E+06
   3160      1     36      9      0.3983          0.6804E+06
   3161      1     36     10      0.3725          0.6804E+06
   3162      1     36     11      0.3492          0.6804E+06
   3163      1     36     12      0.3208          0.6804E+06
   3164      1     36     13      0.2890          0.6804E+06
   3165      1     36     14      0.2581          0.6804E+06
   3166      1     36     15      0.2218          0.6804E+06
   3167      1     36     16      0.1908          0.6804E+06
   3168      1     36     17      0.1589          0.6804E+06
   3169      1     36     18      0.1364          0.6804E+06
   3170      1     36     19      0.1278          0.6804E+06
   3171      1     36     20      0.1253          0.6804E+06
   3172      1     36     21      0.1273          0.6804E+06
   3173      1     36     22      0.1305          0.6804E+06
   3174      1     36     23      0.1314          0.6804E+06
   3175      1     36     24      0.1276          0.6804E+06
   3176      1     36     25      0.1201          0.6804E+06
   3177      1     36     26      0.1124          0.6804E+06
   3178      1     36     27      0.1054          0.6804E+06
   3179      1     36     28      0.9293E-01      0.6804E+06
   3180      1     36     29      0.7565E-01      0.6804E+06
   3181      1     36     30      0.5505E-01      0.6804E+06
   3182      1     36     31      0.2168E-01      0.6804E+06
   3183      1     36     58     -0.5577E-01      0.6804E+06
   3184      1     36     59     -0.5434E-01      0.6804E+06
   3185      1     36     60     -0.5409E-01      0.6804E+06
   3186      1     36     61     -0.5361E-01      0.6804E+06
   3187      1     36     62       0.000          0.6804E+06
   3188      1     36     63       0.000          0.6804E+06
   3189      1     36     64       0.000          0.6804E+06
   3190      1     36     65       0.000          0.6804E+06
   3191      1     36     66       0.000          0.6804E+06
   3192      1     36     67       0.000          0.6804E+06
   3193      1     36     68       0.000          0.6804E+06
   3194      1     36     69       0.000          0.6804E+06
   3195      1     36     70       0.000          0.6804E+06
   3196      1     36     71       0.000          0.6804E+06
   3197      1     36     72       0.000          0.6804E+06
   3198      1     36     73       0.000          0.6804E+06
   3199      1     36     74       0.000          0.6804E+06
   3200      1     36     75       0.000          0.6804E+06
   3201      1     36     76       0.000          0.6804E+06
   3202      1     36     77       0.000          0.6804E+06
   3203      1     36     78       0.000          0.6804E+06
   3204      1     36     79       0.000          0.6804E+06
   3205      1     36     80      0.1034E-01      0.6804E+06
   3206      1     36     81      0.2546E-01      0.6804E+06
   3207      1     36     82      0.3828E-01      0.6804E+06
   3208      1     36     83      0.4767E-01      0.6804E+06
   3209      1     36     84      0.5630E-01      0.6804E+06
   3210      1     36     85      0.6163E-01      0.6804E+06
   3211      1     36     86      0.6422E-01      0.6804E+06
   3212      1     36     87      0.6472E-01      0.6804E+06
   3213      1     36     88      0.6492E-01      0.6804E+06
   3214      1     36     89      0.6586E-01      0.6804E+06
   3215      1     36     90      0.6691E-01      0.6804E+06
   3216      1     36     91      0.6726E-01      0.6804E+06
   3217      1     36     92      0.6731E-01      0.6804E+06
   3218      1     36     93      0.6720E-01      0.6804E+06
   3219      1     36     94      0.6656E-01      0.6804E+06
   3220      1     36     95      0.6579E-01      0.6804E+06
   3221      1     36     96      0.6518E-01      0.6804E+06
   3222      1     36     97      0.6460E-01      0.6804E+06
   3223      1     36     98      0.6422E-01      0.6804E+06
   3224      1     36     99      0.6396E-01      0.6804E+06
   3225      1     36    100      0.6380E-01      0.6804E+06
   3226      1     37      1      0.6002          0.6804E+06
   3227      1     37      2      0.5746          0.6804E+06
   3228      1     37      3      0.5510          0.6804E+06
   3229      1     37      4      0.5234          0.6804E+06
   3230      1     37      5      0.4958          0.6804E+06
   3231      1     37      6      0.4722          0.6804E+06
   3232      1     37      7      0.4461          0.6804E+06
   3233      1     37      8      0.4209          0.6804E+06
   3234      1     37      9      0.3993          0.6804E+06
   3235      1     37     10      0.3749          0.6804E+06
   3236      1     37     11      0.3536          0.6804E+06
   3237      1     37     12      0.3282          0.6804E+06
   3238      1     37     13      0.2989          0.6804E+06
   3239      1     37     14      0.2670          0.6804E+06
   3240      1     37     15      0.2302          0.6804E+06
   3241      1     37     16      0.1990          0.6804E+06
   3242      1     37     17      0.1670          0.6804E+06
   3243      1     37     18      0.1434          0.6804E+06
   3244      1     37     19      0.1327          0.6804E+06
   3245      1     37     20      0.1274          0.6804E+06
   3246      1     37     21      0.1264          0.6804E+06
   3247      1     37     22      0.1275          0.6804E+06
   3248      1     37     23      0.1263          0.6804E+06
   3249      1     37     24      0.1215          0.6804E+06
   3250      1     37     25      0.1131          0.6804E+06
   3251      1     37     26      0.1041          0.6804E+06
   3252      1     37     27      0.9534E-01      0.6804E+06
   3253      1     37     28      0.8062E-01      0.6804E+06
   3254      1     37     29      0.5971E-01      0.6804E+06
   3255      1     37     30      0.3618E-01      0.6804E+06
   3256      1     37     58     -0.5410E-01      0.6804E+06
   3257      1     37     59     -0.5313E-01      0.6804E+06
   3258      1     37     60     -0.5294E-01      0.6804E+06
   3259      1     37     61     -0.5339E-01      0.6804E+06
   3260      1     37     62       0.000          0.6804E+06
   3261      1     37     63       0.000          0.6804E+06
   3262      1     37     64       0.000          0.6804E+06
   3263      1     37     65       0.000          0.6804E+06
   3264      1     37     66       0.000          0.6804E+06
   3265      1     37     67       0.000          0.6804E+06
   3266      1     37     68       0.000          0.6804E+06
   3267      1     37     69       0.000          0.6804E+06
   3268      1     37     70       0.000          0.6804E+06
   3269      1     37     71       0.000          0.6804E+06
   3270      1     37     72       0.000          0.6804E+06
   3271      1     37     73       0.000          0.6804E+06
   3272      1     37     74       0.000          0.6804E+06
   3273      1     37     75       0.000          0.6804E+06
   3274      1     37     76       0.000          0.6804E+06
   3275      1     37     77       0.000          0.6804E+06
   3276      1     37     78       0.000          0.6804E+06
   3277      1     37     79      0.3399E-03      0.6804E+06
   3278      1     37     80      0.1354E-01      0.6804E+06
   3279      1     37     81      0.2884E-01      0.6804E+06
   3280      1     37     82      0.4122E-01      0.6804E+06
   3281      1     37     83      0.5037E-01      0.6804E+06
   3282      1     37     84      0.5852E-01      0.6804E+06
   3283      1     37     85      0.6299E-01      0.6804E+06
   3284      1     37     86      0.6497E-01      0.6804E+06
   3285      1     37     87      0.6523E-01      0.6804E+06
   3286      1     37     88      0.6514E-01      0.6804E+06
   3287      1     37     89      0.6546E-01      0.6804E+06
   3288      1     37     90      0.6608E-01      0.6804E+06
   3289      1     37     91      0.6635E-01      0.6804E+06
   3290      1     37     92      0.6645E-01      0.6804E+06
   3291      1     37     93      0.6641E-01      0.6804E+06
   3292      1     37     94      0.6582E-01      0.6804E+06
   3293      1     37     95      0.6519E-01      0.6804E+06
   3294      1     37     96      0.6463E-01      0.6804E+06
   3295      1     37     97      0.6406E-01      0.6804E+06
   3296      1     37     98      0.6387E-01      0.6804E+06
   3297      1     37     99      0.6359E-01      0.6804E+06
   3298      1     37    100      0.6340E-01      0.6804E+06
   3299      1     38      1      0.6058          0.6804E+06
   3300      1     38      2      0.5783          0.6804E+06
   3301      1     38      3      0.5533          0.6804E+06
   3302      1     38      4      0.5242          0.6804E+06
   3303      1     38      5      0.4957          0.6804E+06
   3304      1     38      6      0.4716          0.6804E+06
   3305      1     38      7      0.4454          0.6804E+06
   3306      1     38      8      0.4204          0.6804E+06
   3307      1     38      9      0.3995          0.6804E+06
   3308      1     38     10      0.3761          0.6804E+06
   3309      1     38     11      0.3561          0.6804E+06
   3310      1     38     12      0.3322          0.6804E+06
   3311      1     38     13      0.3046          0.6804E+06
   3312      1     38     14      0.2735          0.6804E+06
   3313      1     38     15      0.2376          0.6804E+06
   3314      1     38     16      0.2076          0.6804E+06
   3315      1     38     17      0.1767          0.6804E+06
   3316      1     38     18      0.1523          0.6804E+06
   3317      1     38     19      0.1376          0.6804E+06
   3318      1     38     20      0.1266          0.6804E+06
   3319      1     38     21      0.1211          0.6804E+06
   3320      1     38     22      0.1204          0.6804E+06
   3321      1     38     23      0.1171          0.6804E+06
   3322      1     38     24      0.1110          0.6804E+06
   3323      1     38     25      0.1016          0.6804E+06
   3324      1     38     26      0.9116E-01      0.6804E+06
   3325      1     38     27      0.8044E-01      0.6804E+06
   3326      1     38     28      0.6291E-01      0.6804E+06
   3327      1     38     29      0.3824E-01      0.6804E+06
   3328      1     38     58     -0.5216E-01      0.6804E+06
   3329      1     38     59     -0.5327E-01      0.6804E+06
   3330      1     38     60     -0.5256E-01      0.6804E+06
   3331      1     38     61     -0.5299E-01      0.6804E+06
   3332      1     38     62       0.000          0.6804E+06
   3333      1     38     63       0.000          0.6804E+06
   3334      1     38     64       0.000          0.6804E+06
   3335      1     38     65       0.000          0.6804E+06
   3336      1     38     66       0.000          0.6804E+06
   3337      1     38     67       0.000          0.6804E+06
   3338      1     38     68       0.000          0.6804E+06
   3339      1     38     69       0.000          0.6804E+06
   3340      1     38     70       0.000          0.6804E+06
   3341      1     38     71       0.000          0.6804E+06
   3342      1     38     72       0.000          0.6804E+06
   3343      1     38     73       0.000          0.6804E+06
   3344      1     38     74       0.000          0.6804E+06
   3345      1     38     75       0.000          0.6804E+06
   3346      1     38     76       0.000          0.6804E+06
   3347      1     38     77       0.000          0.6804E+06
   3348      1     38     78       0.000          0.6804E+06
   3349      1     38     79      0.2886E-02      0.6804E+06
   3350      1     38     80      0.1388E-01      0.6804E+06
   3351      1     38     81      0.2917E-01      0.6804E+06
   3352      1     38     82      0.4258E-01      0.6804E+06
   3353      1     38     83      0.5246E-01      0.6804E+06
   3354      1     38     84      0.6075E-01      0.6804E+06
   3355      1     38     85      0.6428E-01      0.6804E+06
   3356      1     38     86      0.6550E-01      0.6804E+06
   3357      1     38     87      0.6531E-01      0.6804E+06
   3358      1     38     88      0.6494E-01      0.6804E+06
   3359      1     38     89      0.6507E-01      0.6804E+06
   3360      1     38     90      0.6544E-01      0.6804E+06
   3361      1     38     91      0.6572E-01      0.6804E+06
   3362      1     38     92      0.6587E-01      0.6804E+06
   3363      1     38     93      0.6578E-01      0.6804E+06
   3364      1     38     94      0.6534E-01      0.6804E+06
   3365      1     38     95      0.6474E-01      0.6804E+06
   3366      1     38     96      0.6417E-01      0.6804E+06
   3367      1     38     97      0.6358E-01      0.6804E+06
   3368      1     38     98      0.6338E-01      0.6804E+06
   3369      1     38     99      0.6326E-01      0.6804E+06
   3370      1     38    100      0.6322E-01      0.6804E+06
   3371      1     39      1      0.6106          0.6804E+06
   3372      1     39      2      0.5812          0.6804E+06
   3373      1     39      3      0.5546          0.6804E+06
   3374      1     39      4      0.5241          0.6804E+06
   3375      1     39      5      0.4944          0.6804E+06
   3376      1     39      6      0.4698          0.6804E+06
   3377      1     39      7      0.4435          0.6804E+06
   3378      1     39      8      0.4189          0.6804E+06
   3379      1     39      9      0.3984          0.6804E+06
   3380      1     39     10      0.3756          0.6804E+06
   3381      1     39     11      0.3558          0.6804E+06
   3382      1     39     12      0.3318          0.6804E+06
   3383      1     39     13      0.3043          0.6804E+06
   3384      1     39     14      0.2759          0.6804E+06
   3385      1     39     15      0.2425          0.6804E+06
   3386      1     39     16      0.2142          0.6804E+06
   3387      1     39     17      0.1847          0.6804E+06
   3388      1     39     18      0.1597          0.6804E+06
   3389      1     39     19      0.1401          0.6804E+06
   3390      1     39     20      0.1221          0.6804E+06
   3391      1     39     21      0.1107          0.6804E+06
   3392      1     39     22      0.1073          0.6804E+06
   3393      1     39     23      0.1032          0.6804E+06
   3394      1     39     24      0.9753E-01      0.6804E+06
   3395      1     39     25      0.8892E-01      0.6804E+06
   3396      1     39     26      0.7796E-01      0.6804E+06
   3397      1     39     27      0.6500E-01      0.6804E+06
   3398      1     39     28      0.4355E-01      0.6804E+06
   3399      1     39     29      0.1509E-01      0.6804E+06
   3400      1     39     58     -0.5574E-01      0.6804E+06
   3401      1     39     59     -0.5255E-01      0.6804E+06
   3402      1     39     60     -0.5170E-01      0.6804E+06
   3403      1     39     61     -0.5034E-01      0.6804E+06
   3404      1     39     62       0.000          0.6804E+06
   3405      1     39     63       0.000          0.6804E+06
   3406      1     39     64       0.000          0.6804E+06
   3407      1     39     65       0.000          0.6804E+06
   3408      1     39     66       0.000          0.6804E+06
   3409      1     39     67       0.000          0.6804E+06
   3410      1     39     68       0.000          0.6804E+06
   3411      1     39     69       0.000          0.6804E+06
   3412      1     39     70       0.000          0.6804E+06
   3413      1     39     71       0.000          0.6804E+06
   3414      1     39     72       0.000          0.6804E+06
   3415      1     39     73       0.000          0.6804E+06
   3416      1     39     74       0.000          0.6804E+06
   3417      1     39     75       0.000          0.6804E+06
   3418      1     39     76       0.000          0.6804E+06
   3419      1     39     77       0.000          0.6804E+06
   3420      1     39     78       0.000          0.6804E+06
   3421      1     39     79       0.000          0.6804E+06
   3422      1     39     80      0.1066E-01      0.6804E+06
   3423      1     39     81      0.2790E-01      0.6804E+06
   3424      1     39     82      0.4297E-01      0.6804E+06
   3425      1     39     83      0.5376E-01      0.6804E+06
   3426      1     39     84      0.6223E-01      0.6804E+06
   3427      1     39     85      0.6521E-01      0.6804E+06
   3428      1     39     86      0.6591E-01      0.6804E+06
   3429      1     39     87      0.6528E-01      0.6804E+06
   3430      1     39     88      0.6462E-01      0.6804E+06
   3431      1     39     89      0.6478E-01      0.6804E+06
   3432      1     39     90      0.6514E-01      0.6804E+06
   3433      1     39     91      0.6542E-01      0.6804E+06
   3434      1     39     92      0.6554E-01      0.6804E+06
   3435      1     39     93      0.6535E-01      0.6804E+06
   3436      1     39     94      0.6482E-01      0.6804E+06
   3437      1     39     95      0.6430E-01      0.6804E+06
   3438      1     39     96      0.6387E-01      0.6804E+06
   3439      1     39     97      0.6341E-01      0.6804E+06
   3440      1     39     98      0.6321E-01      0.6804E+06
   3441      1     39     99      0.6311E-01      0.6804E+06
   3442      1     39    100      0.6326E-01      0.6804E+06
   3443      1     40      1      0.6157          0.6804E+06
   3444      1     40      2      0.5839          0.6804E+06
   3445      1     40      3      0.5554          0.6804E+06
   3446      1     40      4      0.5228          0.6804E+06
   3447      1     40      5      0.4915          0.6804E+06
   3448      1     40      6      0.4663          0.6804E+06
   3449      1     40      7      0.4399          0.6804E+06
   3450      1     40      8      0.4156          0.6804E+06
   3451      1     40      9      0.3957          0.6804E+06
   3452      1     40     10      0.3736          0.6804E+06
   3453      1     40     11      0.3539          0.6804E+06
   3454      1     40     12      0.3300          0.6804E+06
   3455      1     40     13      0.3033          0.6804E+06
   3456      1     40     14      0.2770          0.6804E+06
   3457      1     40     15      0.2458          0.6804E+06
   3458      1     40     16      0.2190          0.6804E+06
   3459      1     40     17      0.1901          0.6804E+06
   3460      1     40     18      0.1639          0.6804E+06
   3461      1     40     19      0.1386          0.6804E+06
   3462      1     40     20      0.1114          0.6804E+06
   3463      1     40     21      0.9120E-01      0.6804E+06
   3464      1     40     22      0.8318E-01      0.6804E+06
   3465      1     40     23      0.8053E-01      0.6804E+06
   3466      1     40     24      0.7854E-01      0.6804E+06
   3467      1     40     25      0.7347E-01      0.6804E+06
   3468      1     40     26      0.6318E-01      0.6804E+06
   3469      1     40     27      0.4816E-01      0.6804E+06
   3470      1     40     28      0.2003E-01      0.6804E+06
   3471      1     40     58     -0.5780E-01      0.6804E+06
   3472      1     40     59     -0.5226E-01      0.6804E+06
   3473      1     40     60     -0.4942E-01      0.6804E+06
   3474      1     40     61       0.000          0.6804E+06
   3475      1     40     62       0.000          0.6804E+06
   3476      1     40     63       0.000          0.6804E+06
   3477      1     40     64       0.000          0.6804E+06
   3478      1     40     65       0.000          0.6804E+06
   3479      1     40     66       0.000          0.6804E+06
   3480      1     40     67       0.000          0.6804E+06
   3481      1     40     68       0.000          0.6804E+06
   3482      1     40     69       0.000          0.6804E+06
   3483      1     40     70       0.000          0.6804E+06
   3484      1     40     71       0.000          0.6804E+06
   3485      1     40     72       0.000          0.6804E+06
   3486      1     40     73       0.000          0.6804E+06
   3487      1     40     74       0.000          0.6804E+06
   3488      1     40     75       0.000          0.6804E+06
   3489      1     40     76       0.000          0.6804E+06
   3490      1     40     77       0.000          0.6804E+06
   3491      1     40     78       0.000          0.6804E+06
   3492      1     40     79       0.000          0.6804E+06
   3493      1     40     80      0.4358E-02      0.6804E+06
   3494      1     40     81      0.2614E-01      0.6804E+06
   3495      1     40     82      0.4355E-01      0.6804E+06
   3496      1     40     83      0.5502E-01      0.6804E+06
   3497      1     40     84      0.6320E-01      0.6804E+06
   3498      1     40     85      0.6600E-01      0.6804E+06
   3499      1     40     86      0.6648E-01      0.6804E+06
   3500      1     40     87      0.6553E-01      0.6804E+06
   3501      1     40     88      0.6460E-01      0.6804E+06
   3502      1     40     89      0.6468E-01      0.6804E+06
   3503      1     40     90      0.6496E-01      0.6804E+06
   3504      1     40     91      0.6516E-01      0.6804E+06
   3505      1     40     92      0.6512E-01      0.6804E+06
   3506      1     40     93      0.6470E-01      0.6804E+06
   3507      1     40     94      0.6424E-01      0.6804E+06
   3508      1     40     95      0.6388E-01      0.6804E+06
   3509      1     40     96      0.6362E-01      0.6804E+06
   3510      1     40     97      0.6335E-01      0.6804E+06
   3511      1     40     98      0.6319E-01      0.6804E+06
   3512      1     40     99      0.6333E-01      0.6804E+06
   3513      1     40    100      0.6359E-01      0.6804E+06
   3514      1     41      1      0.6200          0.6804E+06
   3515      1     41      2      0.5856          0.6804E+06
   3516      1     41      3      0.5551          0.6804E+06
   3517      1     41      4      0.5206          0.6804E+06
   3518      1     41      5      0.4879          0.6804E+06
   3519      1     41      6      0.4620          0.6804E+06
   3520      1     41      7      0.4355          0.6804E+06
   3521      1     41      8      0.4116          0.6804E+06
   3522      1     41      9      0.3922          0.6804E+06
   3523      1     41     10      0.3708          0.6804E+06
   3524      1     41     11      0.3518          0.6804E+06
   3525      1     41     12      0.3287          0.6804E+06
   3526      1     41     13      0.3028          0.6804E+06
   3527      1     41     14      0.2775          0.6804E+06
   3528      1     41     15      0.2472          0.6804E+06
   3529      1     41     16      0.2205          0.6804E+06
   3530      1     41     17      0.1905          0.6804E+06
   3531      1     41     18      0.1605          0.6804E+06
   3532      1     41     19      0.1316          0.6804E+06
   3533      1     41     20      0.9813E-01      0.6804E+06
   3534      1     41     21      0.6926E-01      0.6804E+06
   3535      1     41     22      0.5697E-01      0.6804E+06
   3536      1     41     23      0.5786E-01      0.6804E+06
   3537      1     41     24      0.6167E-01      0.6804E+06
   3538      1     41     25      0.6155E-01      0.6804E+06
   3539      1     41     26      0.5299E-01      0.6804E+06
   3540      1     41     27      0.3764E-01      0.6804E+06
   3541      1     41     28      0.4033E-02      0.6804E+06
   3542      1     41     58     -0.5797E-01      0.6804E+06
   3543      1     41     59     -0.5117E-01      0.6804E+06
   3544      1     41     60     -0.4610E-01      0.6804E+06
   3545      1     41     61       0.000          0.6804E+06
   3546      1     41     62       0.000          0.6804E+06
   3547      1     41     63       0.000          0.6804E+06
   3548      1     41     64       0.000          0.6804E+06
   3549      1     41     65       0.000          0.6804E+06
   3550      1     41     66       0.000          0.6804E+06
   3551      1     41     67       0.000          0.6804E+06
   3552      1     41     68       0.000          0.6804E+06
   3553      1     41     69       0.000          0.6804E+06
   3554      1     41     70       0.000          0.6804E+06
   3555      1     41     71       0.000          0.6804E+06
   3556      1     41     72       0.000          0.6804E+06
   3557      1     41     73       0.000          0.6804E+06
   3558      1     41     74       0.000          0.6804E+06
   3559      1     41     75       0.000          0.6804E+06
   3560      1     41     76       0.000          0.6804E+06
   3561      1     41     77       0.000          0.6804E+06
   3562      1     41     78       0.000          0.6804E+06
   3563      1     41     79       0.000          0.6804E+06
   3564      1     41     80      0.2738E-02      0.6804E+06
   3565      1     41     81      0.2637E-01      0.6804E+06
   3566      1     41     82      0.4534E-01      0.6804E+06
   3567      1     41     83      0.5728E-01      0.6804E+06
   3568      1     41     84      0.6478E-01      0.6804E+06
   3569      1     41     85      0.6705E-01      0.6804E+06
   3570      1     41     86      0.6728E-01      0.6804E+06
   3571      1     41     87      0.6635E-01      0.6804E+06
   3572      1     41     88      0.6540E-01      0.6804E+06
   3573      1     41     89      0.6501E-01      0.6804E+06
   3574      1     41     90      0.6488E-01      0.6804E+06
   3575      1     41     91      0.6482E-01      0.6804E+06
   3576      1     41     92      0.6455E-01      0.6804E+06
   3577      1     41     93      0.6397E-01      0.6804E+06
   3578      1     41     94      0.6378E-01      0.6804E+06
   3579      1     41     95      0.6361E-01      0.6804E+06
   3580      1     41     96      0.6342E-01      0.6804E+06
   3581      1     41     97      0.6326E-01      0.6804E+06
   3582      1     41     98      0.6311E-01      0.6804E+06
   3583      1     41     99      0.6343E-01      0.6804E+06
   3584      1     41    100      0.6384E-01      0.6804E+06
   3585      1     42      1      0.6243          0.6804E+06
   3586      1     42      2      0.5865          0.6804E+06
   3587      1     42      3      0.5534          0.6804E+06
   3588      1     42      4      0.5165          0.6804E+06
   3589      1     42      5      0.4823          0.6804E+06
   3590      1     42      6      0.4559          0.6804E+06
   3591      1     42      7      0.4292          0.6804E+06
   3592      1     42      8      0.4057          0.6804E+06
   3593      1     42      9      0.3871          0.6804E+06
   3594      1     42     10      0.3668          0.6804E+06
   3595      1     42     11      0.3489          0.6804E+06
   3596      1     42     12      0.3272          0.6804E+06
   3597      1     42     13      0.3023          0.6804E+06
   3598      1     42     14      0.2777          0.6804E+06
   3599      1     42     15      0.2479          0.6804E+06
   3600      1     42     16      0.2211          0.6804E+06
   3601      1     42     17      0.1897          0.6804E+06
   3602      1     42     18      0.1567          0.6804E+06
   3603      1     42     19      0.1257          0.6804E+06
   3604      1     42     20      0.8865E-01      0.6804E+06
   3605      1     42     21      0.5453E-01      0.6804E+06
   3606      1     42     22      0.3974E-01      0.6804E+06
   3607      1     42     23      0.4285E-01      0.6804E+06
   3608      1     42     24      0.5119E-01      0.6804E+06
   3609      1     42     25      0.5542E-01      0.6804E+06
   3610      1     42     26      0.4942E-01      0.6804E+06
   3611      1     42     27      0.3605E-01      0.6804E+06
   3612      1     42     28      0.5509E-02      0.6804E+06
   3613      1     42     57     -0.6526E-01      0.6804E+06
   3614      1     42     58     -0.5522E-01      0.6804E+06
   3615      1     42     59     -0.5115E-01      0.6804E+06
   3616      1     42     60     -0.4406E-01      0.6804E+06
   3617      1     42     61       0.000          0.6804E+06
   3618      1     42     62       0.000          0.6804E+06
   3619      1     42     63       0.000          0.6804E+06
   3620      1     42     64       0.000          0.6804E+06
   3621      1     42     65       0.000          0.6804E+06
   3622      1     42     66       0.000          0.6804E+06
   3623      1     42     67       0.000          0.6804E+06
   3624      1     42     68       0.000          0.6804E+06
   3625      1     42     69       0.000          0.6804E+06
   3626      1     42     70       0.000          0.6804E+06
   3627      1     42     71       0.000          0.6804E+06
   3628      1     42     72       0.000          0.6804E+06
   3629      1     42     73       0.000          0.6804E+06
   3630      1     42     74       0.000          0.6804E+06
   3631      1     42     75       0.000          0.6804E+06
   3632      1     42     76       0.000          0.6804E+06
   3633      1     42     77       0.000          0.6804E+06
   3634      1     42     78       0.000          0.6804E+06
   3635      1     42     79       0.000          0.6804E+06
   3636      1     42     80      0.6835E-02      0.6804E+06
   3637      1     42     81      0.2985E-01      0.6804E+06
   3638      1     42     82      0.4835E-01      0.6804E+06
   3639      1     42     83      0.5979E-01      0.6804E+06
   3640      1     42     84      0.6652E-01      0.6804E+06
   3641      1     42     85      0.6833E-01      0.6804E+06
   3642      1     42     86      0.6828E-01      0.6804E+06
   3643      1     42     87      0.6724E-01      0.6804E+06
   3644      1     42     88      0.6615E-01      0.6804E+06
   3645      1     42     89      0.6532E-01      0.6804E+06
   3646      1     42     90      0.6490E-01      0.6804E+06
   3647      1     42     91      0.6444E-01      0.6804E+06
   3648      1     42     92      0.6375E-01      0.6804E+06
   3649      1     42     93      0.6347E-01      0.6804E+06
   3650      1     42     94      0.6335E-01      0.6804E+06
   3651      1     42     95      0.6322E-01      0.6804E+06
   3652      1     42     96      0.6309E-01      0.6804E+06
   3653      1     42     97      0.6294E-01      0.6804E+06
   3654      1     42     98      0.6281E-01      0.6804E+06
   3655      1     42     99      0.6319E-01      0.6804E+06
   3656      1     42    100      0.6388E-01      0.6804E+06
   3657      1     43      1      0.6271          0.6804E+06
   3658      1     43      2      0.5860          0.6804E+06
   3659      1     43      3      0.5499          0.6804E+06
   3660      1     43      4      0.5102          0.6804E+06
   3661      1     43      5      0.4744          0.6804E+06
   3662      1     43      6      0.4474          0.6804E+06
   3663      1     43      7      0.4211          0.6804E+06
   3664      1     43      8      0.3985          0.6804E+06
   3665      1     43      9      0.3810          0.6804E+06
   3666      1     43     10      0.3620          0.6804E+06
   3667      1     43     11      0.3454          0.6804E+06
   3668      1     43     12      0.3250          0.6804E+06
   3669      1     43     13      0.3014          0.6804E+06
   3670      1     43     14      0.2777          0.6804E+06
   3671      1     43     15      0.2486          0.6804E+06
   3672      1     43     16      0.2218          0.6804E+06
   3673      1     43     17      0.1899          0.6804E+06
   3674      1     43     18      0.1560          0.6804E+06
   3675      1     43     19      0.1248          0.6804E+06
   3676      1     43     20      0.8877E-01      0.6804E+06
   3677      1     43     21      0.5680E-01      0.6804E+06
   3678      1     43     22      0.4287E-01      0.6804E+06
   3679      1     43     23      0.4420E-01      0.6804E+06
   3680      1     43     24      0.5142E-01      0.6804E+06
   3681      1     43     25      0.5615E-01      0.6804E+06
   3682      1     43     26      0.5316E-01      0.6804E+06
   3683      1     43     58     -0.5469E-01      0.6804E+06
   3684      1     43     59     -0.5139E-01      0.6804E+06
   3685      1     43     60       0.000          0.6804E+06
   3686      1     43     61       0.000          0.6804E+06
   3687      1     43     62       0.000          0.6804E+06
   3688      1     43     63       0.000          0.6804E+06
   3689      1     43     64       0.000          0.6804E+06
   3690      1     43     65       0.000          0.6804E+06
   3691      1     43     66       0.000          0.6804E+06
   3692      1     43     67       0.000          0.6804E+06
   3693      1     43     68       0.000          0.6804E+06
   3694      1     43     69       0.000          0.6804E+06
   3695      1     43     70       0.000          0.6804E+06
   3696      1     43     71       0.000          0.6804E+06
   3697      1     43     72       0.000          0.6804E+06
   3698      1     43     73       0.000          0.6804E+06
   3699      1     43     74       0.000          0.6804E+06
   3700      1     43     75       0.000          0.6804E+06
   3701      1     43     76       0.000          0.6804E+06
   3702      1     43     77       0.000          0.6804E+06
   3703      1     43     78       0.000          0.6804E+06
   3704      1     43     79       0.000          0.6804E+06
   3705      1     43     80      0.1676E-01      0.6804E+06
   3706      1     43     81      0.3708E-01      0.6804E+06
   3707      1     43     82      0.5298E-01      0.6804E+06
   3708      1     43     83      0.6277E-01      0.6804E+06
   3709      1     43     84      0.6843E-01      0.6804E+06
   3710      1     43     85      0.6982E-01      0.6804E+06
   3711      1     43     86      0.6933E-01      0.6804E+06
   3712      1     43     87      0.6783E-01      0.6804E+06
   3713      1     43     88      0.6638E-01      0.6804E+06
   3714      1     43     89      0.6507E-01      0.6804E+06
   3715      1     43     90      0.6442E-01      0.6804E+06
   3716      1     43     91      0.6399E-01      0.6804E+06
   3717      1     43     92      0.6350E-01      0.6804E+06
   3718      1     43     93      0.6326E-01      0.6804E+06
   3719      1     43     94      0.6309E-01      0.6804E+06
   3720      1     43     95      0.6287E-01      0.6804E+06
   3721      1     43     96      0.6266E-01      0.6804E+06
   3722      1     43     97      0.6267E-01      0.6804E+06
   3723      1     43     98      0.6299E-01      0.6804E+06
   3724      1     43     99      0.6362E-01      0.6804E+06
   3725      1     43    100      0.6436E-01      0.6804E+06
   3726      1     44      1      0.6289          0.6804E+06
   3727      1     44      2      0.5845          0.6804E+06
   3728      1     44      3      0.5454          0.6804E+06
   3729      1     44      4      0.5026          0.6804E+06
   3730      1     44      5      0.4648          0.6804E+06
   3731      1     44      6      0.4376          0.6804E+06
   3732      1     44      7      0.4120          0.6804E+06
   3733      1     44      8      0.3909          0.6804E+06
   3734      1     44      9      0.3748          0.6804E+06
   3735      1     44     10      0.3574          0.6804E+06
   3736      1     44     11      0.3419          0.6804E+06
   3737      1     44     12      0.3227          0.6804E+06
   3738      1     44     13      0.3002          0.6804E+06
   3739      1     44     14      0.2776          0.6804E+06
   3740      1     44     15      0.2495          0.6804E+06
   3741      1     44     16      0.2232          0.6804E+06
   3742      1     44     17      0.1919          0.6804E+06
   3743      1     44     18      0.1586          0.6804E+06
   3744      1     44     19      0.1286          0.6804E+06
   3745      1     44     20      0.9548E-01      0.6804E+06
   3746      1     44     21      0.6861E-01      0.6804E+06
   3747      1     44     22      0.5639E-01      0.6804E+06
   3748      1     44     23      0.5424E-01      0.6804E+06
   3749      1     44     24      0.5758E-01      0.6804E+06
   3750      1     44     25      0.6075E-01      0.6804E+06
   3751      1     44     58     -0.5545E-01      0.6804E+06
   3752      1     44     59     -0.5118E-01      0.6804E+06
   3753      1     44     60       0.000          0.6804E+06
   3754      1     44     61       0.000          0.6804E+06
   3755      1     44     62       0.000          0.6804E+06
   3756      1     44     63       0.000          0.6804E+06
   3757      1     44     64       0.000          0.6804E+06
   3758      1     44     65       0.000          0.6804E+06
   3759      1     44     66       0.000          0.6804E+06
   3760      1     44     67       0.000          0.6804E+06
   3761      1     44     68       0.000          0.6804E+06
   3762      1     44     69       0.000          0.6804E+06
   3763      1     44     70       0.000          0.6804E+06
   3764      1     44     71       0.000          0.6804E+06
   3765      1     44     72       0.000          0.6804E+06
   3766      1     44     73       0.000          0.6804E+06
   3767      1     44     74       0.000          0.6804E+06
   3768      1     44     75       0.000          0.6804E+06
   3769      1     44     76       0.000          0.6804E+06
   3770      1     44     77       0.000          0.6804E+06
   3771      1     44     78       0.000          0.6804E+06
   3772      1     44     79      0.9758E-02      0.6804E+06
   3773      1     44     80      0.2919E-01      0.6804E+06
   3774      1     44     81      0.4648E-01      0.6804E+06
   3775      1     44     82      0.5915E-01      0.6804E+06
   3776      1     44     83      0.6663E-01      0.6804E+06
   3777      1     44     84      0.7079E-01      0.6804E+06
   3778      1     44     85      0.7158E-01      0.6804E+06
   3779      1     44     86      0.7042E-01      0.6804E+06
   3780      1     44     87      0.6816E-01      0.6804E+06
   3781      1     44     88      0.6618E-01      0.6804E+06
   3782      1     44     89      0.6466E-01      0.6804E+06
   3783      1     44     90      0.6404E-01      0.6804E+06
   3784      1     44     91      0.6382E-01      0.6804E+06
   3785      1     44     92      0.6360E-01      0.6804E+06
   3786      1     44     93      0.6335E-01      0.6804E+06
   3787      1     44     94      0.6301E-01      0.6804E+06
   3788      1     44     95      0.6268E-01      0.6804E+06
   3789      1     44     96      0.6252E-01      0.6804E+06
   3790      1     44     97      0.6256E-01      0.6804E+06
   3791      1     44     98      0.6314E-01      0.6804E+06
   3792      1     44     99      0.6399E-01      0.6804E+06
   3793      1     44    100      0.6485E-01      0.6804E+06
   3794      1     45      1      0.6309          0.6804E+06
   3795      1     45      2      0.5825          0.6804E+06
   3796      1     45      3      0.5394          0.6804E+06
   3797      1     45      4      0.4919          0.6804E+06
   3798      1     45      5      0.4508          0.6804E+06
   3799      1     45      6      0.4237          0.6804E+06
   3800      1     45      7      0.4003          0.6804E+06
   3801      1     45      8      0.3816          0.6804E+06
   3802      1     45      9      0.3674          0.6804E+06
   3803      1     45     10      0.3522          0.6804E+06
   3804      1     45     11      0.3385          0.6804E+06
   3805      1     45     12      0.3211          0.6804E+06
   3806      1     45     13      0.3000          0.6804E+06
   3807      1     45     14      0.2785          0.6804E+06
   3808      1     45     15      0.2514          0.6804E+06
   3809      1     45     16      0.2259          0.6804E+06
   3810      1     45     17      0.1956          0.6804E+06
   3811      1     45     18      0.1639          0.6804E+06
   3812      1     45     19      0.1352          0.6804E+06
   3813      1     45     20      0.1040          0.6804E+06
   3814      1     45     21      0.8058E-01      0.6804E+06
   3815      1     45     22      0.6985E-01      0.6804E+06
   3816      1     45     23      0.6611E-01      0.6804E+06
   3817      1     45     24      0.6714E-01      0.6804E+06
   3818      1     45     25      0.6874E-01      0.6804E+06
   3819      1     45     58     -0.5572E-01      0.6804E+06
   3820      1     45     59     -0.5058E-01      0.6804E+06
   3821      1     45     60       0.000          0.6804E+06
   3822      1     45     61       0.000          0.6804E+06
   3823      1     45     62       0.000          0.6804E+06
   3824      1     45     63       0.000          0.6804E+06
   3825      1     45     64       0.000          0.6804E+06
   3826      1     45     65       0.000          0.6804E+06
   3827      1     45     66       0.000          0.6804E+06
   3828      1     45     67       0.000          0.6804E+06
   3829      1     45     68       0.000          0.6804E+06
   3830      1     45     69       0.000          0.6804E+06
   3831      1     45     70       0.000          0.6804E+06
   3832      1     45     71       0.000          0.6804E+06
   3833      1     45     72       0.000          0.6804E+06
   3834      1     45     73       0.000          0.6804E+06
   3835      1     45     74       0.000          0.6804E+06
   3836      1     45     75       0.000          0.6804E+06
   3837      1     45     76       0.000          0.6804E+06
   3838      1     45     77       0.000          0.6804E+06
   3839      1     45     78      0.8691E-02      0.6804E+06
   3840      1     45     79      0.2846E-01      0.6804E+06
   3841      1     45     80      0.4638E-01      0.6804E+06
   3842      1     45     81      0.6039E-01      0.6804E+06
   3843      1     45     82      0.6919E-01      0.6804E+06
   3844      1     45     83      0.7359E-01      0.6804E+06
   3845      1     45     84      0.7522E-01      0.6804E+06
   3846      1     45     85      0.7465E-01      0.6804E+06
   3847      1     45     86      0.7222E-01      0.6804E+06
   3848      1     45     87      0.6868E-01      0.6804E+06
   3849      1     45     88      0.6579E-01      0.6804E+06
   3850      1     45     89      0.6454E-01      0.6804E+06
   3851      1     45     90      0.6439E-01      0.6804E+06
   3852      1     45     91      0.6441E-01      0.6804E+06
   3853      1     45     92      0.6419E-01      0.6804E+06
   3854      1     45     93      0.6374E-01      0.6804E+06
   3855      1     45     94      0.6307E-01      0.6804E+06
   3856      1     45     95      0.6265E-01      0.6804E+06
   3857      1     45     96      0.6259E-01      0.6804E+06
   3858      1     45     97      0.6267E-01      0.6804E+06
   3859      1     45     98      0.6335E-01      0.6804E+06
   3860      1     45     99      0.6438E-01      0.6804E+06
   3861      1     45    100      0.6549E-01      0.6804E+06
   3862      1     46      1      0.6333          0.6804E+06
   3863      1     46      2      0.5811          0.6804E+06
   3864      1     46      3      0.5343          0.6804E+06
   3865      1     46      4      0.4823          0.6804E+06
   3866      1     46      5      0.4381          0.6804E+06
   3867      1     46      6      0.4111          0.6804E+06
   3868      1     46      7      0.3899          0.6804E+06
   3869      1     46      8      0.3733          0.6804E+06
   3870      1     46      9      0.3609          0.6804E+06
   3871      1     46     10      0.3478          0.6804E+06
   3872      1     46     11      0.3360          0.6804E+06
   3873      1     46     12      0.3208          0.6804E+06
   3874      1     46     13      0.3008          0.6804E+06
   3875      1     46     14      0.2799          0.6804E+06
   3876      1     46     15      0.2535          0.6804E+06
   3877      1     46     16      0.2288          0.6804E+06
   3878      1     46     17      0.1991          0.6804E+06
   3879      1     46     18      0.1679          0.6804E+06
   3880      1     46     19      0.1400          0.6804E+06
   3881      1     46     20      0.1101          0.6804E+06
   3882      1     46     21      0.8840E-01      0.6804E+06
   3883      1     46     22      0.7844E-01      0.6804E+06
   3884      1     46     23      0.7441E-01      0.6804E+06
   3885      1     46     24      0.7467E-01      0.6804E+06
   3886      1     46     58     -0.5501E-01      0.6804E+06
   3887      1     46     59     -0.5001E-01      0.6804E+06
   3888      1     46     60       0.000          0.6804E+06
   3889      1     46     61       0.000          0.6804E+06
   3890      1     46     62       0.000          0.6804E+06
   3891      1     46     63       0.000          0.6804E+06
   3892      1     46     64       0.000          0.6804E+06
   3893      1     46     65       0.000          0.6804E+06
   3894      1     46     66       0.000          0.6804E+06
   3895      1     46     67       0.000          0.6804E+06
   3896      1     46     68       0.000          0.6804E+06
   3897      1     46     69       0.000          0.6804E+06
   3898      1     46     70       0.000          0.6804E+06
   3899      1     46     71       0.000          0.6804E+06
   3900      1     46     72       0.000          0.6804E+06
   3901      1     46     73       0.000          0.6804E+06
   3902      1     46     74       0.000          0.6804E+06
   3903      1     46     75       0.000          0.6804E+06
   3904      1     46     76       0.000          0.6804E+06
   3905      1     46     77      0.7908E-02      0.6804E+06
   3906      1     46     78      0.2555E-01      0.6804E+06
   3907      1     46     79      0.4599E-01      0.6804E+06
   3908      1     46     80      0.6374E-01      0.6804E+06
   3909      1     46     81      0.7417E-01      0.6804E+06
   3910      1     46     82      0.7869E-01      0.6804E+06
   3911      1     46     83      0.8019E-01      0.6804E+06
   3912      1     46     84      0.7972E-01      0.6804E+06
   3913      1     46     85      0.7811E-01      0.6804E+06
   3914      1     46     86      0.7472E-01      0.6804E+06
   3915      1     46     87      0.7008E-01      0.6804E+06
   3916      1     46     88      0.6631E-01      0.6804E+06
   3917      1     46     89      0.6561E-01      0.6804E+06
   3918      1     46     90      0.6593E-01      0.6804E+06
   3919      1     46     91      0.6608E-01      0.6804E+06
   3920      1     46     92      0.6569E-01      0.6804E+06
   3921      1     46     93      0.6435E-01      0.6804E+06
   3922      1     46     94      0.6333E-01      0.6804E+06
   3923      1     46     95      0.6289E-01      0.6804E+06
   3924      1     46     96      0.6277E-01      0.6804E+06
   3925      1     46     97      0.6300E-01      0.6804E+06
   3926      1     46     98      0.6365E-01      0.6804E+06
   3927      1     46     99      0.6472E-01      0.6804E+06
   3928      1     46    100      0.6612E-01      0.6804E+06
   3929      1     47      1      0.6372          0.6804E+06
   3930      1     47      2      0.5806          0.6804E+06
   3931      1     47      3      0.5303          0.6804E+06
   3932      1     47      4      0.4750          0.6804E+06
   3933      1     47      5      0.4283          0.6804E+06
   3934      1     47      6      0.4004          0.6804E+06
   3935      1     47      7      0.3800          0.6804E+06
   3936      1     47      8      0.3647          0.6804E+06
   3937      1     47      9      0.3538          0.6804E+06
   3938      1     47     10      0.3428          0.6804E+06
   3939      1     47     11      0.3333          0.6804E+06
   3940      1     47     12      0.3206          0.6804E+06
   3941      1     47     13      0.3020          0.6804E+06
   3942      1     47     14      0.2818          0.6804E+06
   3943      1     47     15      0.2562          0.6804E+06
   3944      1     47     16      0.2323          0.6804E+06
   3945      1     47     17      0.2032          0.6804E+06
   3946      1     47     18      0.1722          0.6804E+06
   3947      1     47     19      0.1443          0.6804E+06
   3948      1     47     20      0.1142          0.6804E+06
   3949      1     47     21      0.9314E-01      0.6804E+06
   3950      1     47     22      0.8448E-01      0.6804E+06
   3951      1     47     23      0.8120E-01      0.6804E+06
   3952      1     47     24      0.8104E-01      0.6804E+06
   3953      1     47     58     -0.5369E-01      0.6804E+06
   3954      1     47     59     -0.5154E-01      0.6804E+06
   3955      1     47     60       0.000          0.6804E+06
   3956      1     47     61       0.000          0.6804E+06
   3957      1     47     62       0.000          0.6804E+06
   3958      1     47     63       0.000          0.6804E+06
   3959      1     47     64       0.000          0.6804E+06
   3960      1     47     65       0.000          0.6804E+06
   3961      1     47     66       0.000          0.6804E+06
   3962      1     47     67       0.000          0.6804E+06
   3963      1     47     68       0.000          0.6804E+06
   3964      1     47     69       0.000          0.6804E+06
   3965      1     47     70       0.000          0.6804E+06
   3966      1     47     71       0.000          0.6804E+06
   3967      1     47     72       0.000          0.6804E+06
   3968      1     47     73       0.000          0.6804E+06
   3969      1     47     74       0.000          0.6804E+06
   3970      1     47     75       0.000          0.6804E+06
   3971      1     47     76       0.000          0.6804E+06
   3972      1     47     77      0.1581E-01      0.6804E+06
   3973      1     47     78      0.4050E-01      0.6804E+06
   3974      1     47     79      0.6354E-01      0.6804E+06
   3975      1     47     80      0.8014E-01      0.6804E+06
   3976      1     47     81      0.8707E-01      0.6804E+06
   3977      1     47     82      0.8779E-01      0.6804E+06
   3978      1     47     83      0.8671E-01      0.6804E+06
   3979      1     47     84      0.8422E-01      0.6804E+06
   3980      1     47     85      0.8200E-01      0.6804E+06
   3981      1     47     86      0.7849E-01      0.6804E+06
   3982      1     47     87      0.7391E-01      0.6804E+06
   3983      1     47     88      0.7041E-01      0.6804E+06
   3984      1     47     89      0.6935E-01      0.6804E+06
   3985      1     47     90      0.6884E-01      0.6804E+06
   3986      1     47     91      0.6821E-01      0.6804E+06
   3987      1     47     92      0.6723E-01      0.6804E+06
   3988      1     47     93      0.6591E-01      0.6804E+06
   3989      1     47     94      0.6462E-01      0.6804E+06
   3990      1     47     95      0.6372E-01      0.6804E+06
   3991      1     47     96      0.6328E-01      0.6804E+06
   3992      1     47     97      0.6335E-01      0.6804E+06
   3993      1     47     98      0.6391E-01      0.6804E+06
   3994      1     47     99      0.6510E-01      0.6804E+06
   3995      1     47    100      0.6690E-01      0.6804E+06
   3996      1     48      1      0.6411          0.6804E+06
   3997      1     48      2      0.5810          0.6804E+06
   3998      1     48      3      0.5283          0.6804E+06
   3999      1     48      4      0.4719          0.6804E+06
   4000      1     48      5      0.4251          0.6804E+06
   4001      1     48      6      0.3953          0.6804E+06
   4002      1     48      7      0.3723          0.6804E+06
   4003      1     48      8      0.3567          0.6804E+06
   4004      1     48      9      0.3469          0.6804E+06
   4005      1     48     10      0.3377          0.6804E+06
   4006      1     48     11      0.3297          0.6804E+06
   4007      1     48     12      0.3184          0.6804E+06
   4008      1     48     13      0.3018          0.6804E+06
   4009      1     48     14      0.2831          0.6804E+06
   4010      1     48     15      0.2587          0.6804E+06
   4011      1     48     16      0.2356          0.6804E+06
   4012      1     48     17      0.2078          0.6804E+06
   4013      1     48     18      0.1774          0.6804E+06
   4014      1     48     19      0.1486          0.6804E+06
   4015      1     48     20      0.1161          0.6804E+06
   4016      1     48     21      0.9436E-01      0.6804E+06
   4017      1     48     22      0.8738E-01      0.6804E+06
   4018      1     48     23      0.8581E-01      0.6804E+06
   4019      1     48     24      0.8545E-01      0.6804E+06
   4020      1     48     58     -0.4684E-01      0.6804E+06
   4021      1     48     59     -0.4970E-01      0.6804E+06
   4022      1     48     60       0.000          0.6804E+06
   4023      1     48     61       0.000          0.6804E+06
   4024      1     48     62       0.000          0.6804E+06
   4025      1     48     63       0.000          0.6804E+06
   4026      1     48     64       0.000          0.6804E+06
   4027      1     48     65       0.000          0.6804E+06
   4028      1     48     66       0.000          0.6804E+06
   4029      1     48     67       0.000          0.6804E+06
   4030      1     48     68       0.000          0.6804E+06
   4031      1     48     69       0.000          0.6804E+06
   4032      1     48     70       0.000          0.6804E+06
   4033      1     48     71       0.000          0.6804E+06
   4034      1     48     72       0.000          0.6804E+06
   4035      1     48     73       0.000          0.6804E+06
   4036      1     48     74       0.000          0.6804E+06
   4037      1     48     75       0.000          0.6804E+06
   4038      1     48     76       0.000          0.6804E+06
   4039      1     48     77      0.2057E-01      0.6804E+06
   4040      1     48     78      0.5094E-01      0.6804E+06
   4041      1     48     79      0.7419E-01      0.6804E+06
   4042      1     48     80      0.8650E-01      0.6804E+06
   4043      1     48     81      0.9218E-01      0.6804E+06
   4044      1     48     82      0.9262E-01      0.6804E+06
   4045      1     48     83      0.9068E-01      0.6804E+06
   4046      1     48     84      0.8726E-01      0.6804E+06
   4047      1     48     85      0.8525E-01      0.6804E+06
   4048      1     48     86      0.8264E-01      0.6804E+06
   4049      1     48     87      0.7914E-01      0.6804E+06
   4050      1     48     88      0.7656E-01      0.6804E+06
   4051      1     48     89      0.7440E-01      0.6804E+06
   4052      1     48     90      0.7256E-01      0.6804E+06
   4053      1     48     91      0.7109E-01      0.6804E+06
   4054      1     48     92      0.6944E-01      0.6804E+06
   4055      1     48     93      0.6789E-01      0.6804E+06
   4056      1     48     94      0.6611E-01      0.6804E+06
   4057      1     48     95      0.6456E-01      0.6804E+06
   4058      1     48     96      0.6361E-01      0.6804E+06
   4059      1     48     97      0.6340E-01      0.6804E+06
   4060      1     48     98      0.6396E-01      0.6804E+06
   4061      1     48     99      0.6543E-01      0.6804E+06
   4062      1     48    100      0.6775E-01      0.6804E+06
   4063      1     49      1      0.6445          0.6804E+06
   4064      1     49      2      0.5812          0.6804E+06
   4065      1     49      3      0.5260          0.6804E+06
   4066      1     49      4      0.4680          0.6804E+06
   4067      1     49      5      0.4202          0.6804E+06
   4068      1     49      6      0.3889          0.6804E+06
   4069      1     49      7      0.3645          0.6804E+06
   4070      1     49      8      0.3492          0.6804E+06
   4071      1     49      9      0.3404          0.6804E+06
   4072      1     49     10      0.3328          0.6804E+06
   4073      1     49     11      0.3263          0.6804E+06
   4074      1     49     12      0.3166          0.6804E+06
   4075      1     49     13      0.3015          0.6804E+06
   4076      1     49     14      0.2841          0.6804E+06
   4077      1     49     15      0.2606          0.6804E+06
   4078      1     49     16      0.2384          0.6804E+06
   4079      1     49     17      0.2125          0.6804E+06
   4080      1     49     18      0.1836          0.6804E+06
   4081      1     49     19      0.1544          0.6804E+06
   4082      1     49     20      0.1186          0.6804E+06
   4083      1     49     21      0.9563E-01      0.6804E+06
   4084      1     49     22      0.8942E-01      0.6804E+06
   4085      1     49     23      0.8890E-01      0.6804E+06
   4086      1     49     24      0.8791E-01      0.6804E+06
   4087      1     49     58     -0.3985E-01      0.6804E+06
   4088      1     49     59     -0.4826E-01      0.6804E+06
   4089      1     49     60       0.000          0.6804E+06
   4090      1     49     61       0.000          0.6804E+06
   4091      1     49     62       0.000          0.6804E+06
   4092      1     49     63       0.000          0.6804E+06
   4093      1     49     64       0.000          0.6804E+06
   4094      1     49     65       0.000          0.6804E+06
   4095      1     49     66       0.000          0.6804E+06
   4096      1     49     67       0.000          0.6804E+06
   4097      1     49     68       0.000          0.6804E+06
   4098      1     49     69       0.000          0.6804E+06
   4099      1     49     70       0.000          0.6804E+06
   4100      1     49     71       0.000          0.6804E+06
   4101      1     49     72       0.000          0.6804E+06
   4102      1     49     73       0.000          0.6804E+06
   4103      1     49     74       0.000          0.6804E+06
   4104      1     49     75       0.000          0.6804E+06
   4105      1     49     76       0.000          0.6804E+06
   4106      1     49     77      0.2617E-01      0.6804E+06
   4107      1     49     78      0.5977E-01      0.6804E+06
   4108      1     49     79      0.8224E-01      0.6804E+06
   4109      1     49     80      0.9056E-01      0.6804E+06
   4110      1     49     81      0.9371E-01      0.6804E+06
   4111      1     49     82      0.9331E-01      0.6804E+06
   4112      1     49     83      0.9132E-01      0.6804E+06
   4113      1     49     84      0.8868E-01      0.6804E+06
   4114      1     49     85      0.8744E-01      0.6804E+06
   4115      1     49     86      0.8587E-01      0.6804E+06
   4116      1     49     87      0.8338E-01      0.6804E+06
   4117      1     49     88      0.8144E-01      0.6804E+06
   4118      1     49     89      0.7867E-01      0.6804E+06
   4119      1     49     90      0.7617E-01      0.6804E+06
   4120      1     49     91      0.7440E-01      0.6804E+06
   4121      1     49     92      0.7222E-01      0.6804E+06
   4122      1     49     93      0.7004E-01      0.6804E+06
   4123      1     49     94      0.6758E-01      0.6804E+06
   4124      1     49     95      0.6541E-01      0.6804E+06
   4125      1     49     96      0.6392E-01      0.6804E+06
   4126      1     49     97      0.6339E-01      0.6804E+06
   4127      1     49     98      0.6404E-01      0.6804E+06
   4128      1     49     99      0.6595E-01      0.6804E+06
   4129      1     49    100      0.6881E-01      0.6804E+06
   4130      1     50      1      0.6484          0.6804E+06
   4131      1     50      2      0.5806          0.6804E+06
   4132      1     50      3      0.5216          0.6804E+06
   4133      1     50      4      0.4600          0.6804E+06
   4134      1     50      5      0.4096          0.6804E+06
   4135      1     50      6      0.3771          0.6804E+06
   4136      1     50      7      0.3532          0.6804E+06
   4137      1     50      8      0.3393          0.6804E+06
   4138      1     50      9      0.3323          0.6804E+06
   4139      1     50     10      0.3270          0.6804E+06
   4140      1     50     11      0.3229          0.6804E+06
   4141      1     50     12      0.3159          0.6804E+06
   4142      1     50     13      0.3022          0.6804E+06
   4143      1     50     14      0.2850          0.6804E+06
   4144      1     50     15      0.2614          0.6804E+06
   4145      1     50     16      0.2395          0.6804E+06
   4146      1     50     17      0.2147          0.6804E+06
   4147      1     50     18      0.1879          0.6804E+06
   4148      1     50     19      0.1614          0.6804E+06
   4149      1     50     20      0.1288          0.6804E+06
   4150      1     50     21      0.1070          0.6804E+06
   4151      1     50     22      0.9810E-01      0.6804E+06
   4152      1     50     23      0.9303E-01      0.6804E+06
   4153      1     50     24      0.8803E-01      0.6804E+06
   4154      1     50     25      0.7495E-01      0.6804E+06
   4155      1     50     58     -0.3243E-01      0.6804E+06
   4156      1     50     59       0.000          0.6804E+06
   4157      1     50     60       0.000          0.6804E+06
   4158      1     50     61       0.000          0.6804E+06
   4159      1     50     62       0.000          0.6804E+06
   4160      1     50     63       0.000          0.6804E+06
   4161      1     50     64       0.000          0.6804E+06
   4162      1     50     65       0.000          0.6804E+06
   4163      1     50     66       0.000          0.6804E+06
   4164      1     50     67       0.000          0.6804E+06
   4165      1     50     68       0.000          0.6804E+06
   4166      1     50     69       0.000          0.6804E+06
   4167      1     50     70       0.000          0.6804E+06
   4168      1     50     71       0.000          0.6804E+06
   4169      1     50     72       0.000          0.6804E+06
   4170      1     50     73       0.000          0.6804E+06
   4171      1     50     74       0.000          0.6804E+06
   4172      1     50     75       0.000          0.6804E+06
   4173      1     50     76       0.000          0.6804E+06
   4174      1     50     77      0.2622E-01      0.6804E+06
   4175      1     50     78      0.6102E-01      0.6804E+06
   4176      1     50     79      0.8206E-01      0.6804E+06
   4177      1     50     80      0.8855E-01      0.6804E+06
   4178      1     50     81      0.9105E-01      0.6804E+06
   4179      1     50     82      0.9102E-01      0.6804E+06
   4180      1     50     83      0.8983E-01      0.6804E+06
   4181      1     50     84      0.8921E-01      0.6804E+06
   4182      1     50     85      0.8859E-01      0.6804E+06
   4183      1     50     86      0.8761E-01      0.6804E+06
   4184      1     50     87      0.8664E-01      0.6804E+06
   4185      1     50     88      0.8608E-01      0.6804E+06
   4186      1     50     89      0.8334E-01      0.6804E+06
   4187      1     50     90      0.8048E-01      0.6804E+06
   4188      1     50     91      0.7860E-01      0.6804E+06
   4189      1     50     92      0.7598E-01      0.6804E+06
   4190      1     50     93      0.7338E-01      0.6804E+06
   4191      1     50     94      0.7021E-01      0.6804E+06
   4192      1     50     95      0.6711E-01      0.6804E+06
   4193      1     50     96      0.6480E-01      0.6804E+06
   4194      1     50     97      0.6365E-01      0.6804E+06
   4195      1     50     98      0.6446E-01      0.6804E+06
   4196      1     50     99      0.6716E-01      0.6804E+06
   4197      1     50    100      0.7078E-01      0.6804E+06
   4198      1     51      1      0.6524          0.6804E+06
   4199      1     51      2      0.5785          0.6804E+06
   4200      1     51      3      0.5145          0.6804E+06
   4201      1     51      4      0.4479          0.6804E+06
   4202      1     51      5      0.3935          0.6804E+06
   4203      1     51      6      0.3598          0.6804E+06
   4204      1     51      7      0.3389          0.6804E+06
   4205      1     51      8      0.3280          0.6804E+06
   4206      1     51      9      0.3233          0.6804E+06
   4207      1     51     10      0.3208          0.6804E+06
   4208      1     51     11      0.3194          0.6804E+06
   4209      1     51     12      0.3158          0.6804E+06
   4210      1     51     13      0.3028          0.6804E+06
   4211      1     51     14      0.2848          0.6804E+06
   4212      1     51     15      0.2597          0.6804E+06
   4213      1     51     16      0.2374          0.6804E+06
   4214      1     51     17      0.2126          0.6804E+06
   4215      1     51     18      0.1872          0.6804E+06
   4216      1     51     19      0.1642          0.6804E+06
   4217      1     51     20      0.1377          0.6804E+06
   4218      1     51     21      0.1180          0.6804E+06
   4219      1     51     22      0.1067          0.6804E+06
   4220      1     51     23      0.9668E-01      0.6804E+06
   4221      1     51     24      0.8690E-01      0.6804E+06
   4222      1     51     25      0.6720E-01      0.6804E+06
   4223      1     51     59       0.000          0.6804E+06
   4224      1     51     60       0.000          0.6804E+06
   4225      1     51     61       0.000          0.6804E+06
   4226      1     51     62       0.000          0.6804E+06
   4227      1     51     63       0.000          0.6804E+06
   4228      1     51     64       0.000          0.6804E+06
   4229      1     51     65       0.000          0.6804E+06
   4230      1     51     66       0.000          0.6804E+06
   4231      1     51     67       0.000          0.6804E+06
   4232      1     51     68       0.000          0.6804E+06
   4233      1     51     69       0.000          0.6804E+06
   4234      1     51     70       0.000          0.6804E+06
   4235      1     51     71       0.000          0.6804E+06
   4236      1     51     72       0.000          0.6804E+06
   4237      1     51     73       0.000          0.6804E+06
   4238      1     51     74       0.000          0.6804E+06
   4239      1     51     75       0.000          0.6804E+06
   4240      1     51     76       0.000          0.6804E+06
   4241      1     51     77      0.1992E-01      0.6804E+06
   4242      1     51     78      0.5330E-01      0.6804E+06
   4243      1     51     79      0.7253E-01      0.6804E+06
   4244      1     51     80      0.7934E-01      0.6804E+06
   4245      1     51     81      0.8335E-01      0.6804E+06
   4246      1     51     82      0.8528E-01      0.6804E+06
   4247      1     51     83      0.8566E-01      0.6804E+06
   4248      1     51     84      0.8673E-01      0.6804E+06
   4249      1     51     85      0.8706E-01      0.6804E+06
   4250      1     51     86      0.8713E-01      0.6804E+06
   4251      1     51     87      0.8749E-01      0.6804E+06
   4252      1     51     88      0.8754E-01      0.6804E+06
   4253      1     51     89      0.8595E-01      0.6804E+06
   4254      1     51     90      0.8414E-01      0.6804E+06
   4255      1     51     91      0.8279E-01      0.6804E+06
   4256      1     51     92      0.8023E-01      0.6804E+06
   4257      1     51     93      0.7771E-01      0.6804E+06
   4258      1     51     94      0.7434E-01      0.6804E+06
   4259      1     51     95      0.7050E-01      0.6804E+06
   4260      1     51     96      0.6706E-01      0.6804E+06
   4261      1     51     97      0.6477E-01      0.6804E+06
   4262      1     51     98      0.6573E-01      0.6804E+06
   4263      1     51     99      0.6979E-01      0.6804E+06
   4264      1     51    100      0.7431E-01      0.6804E+06
   4265      1     52      1      0.6540          0.6804E+06
   4266      1     52      2      0.5751          0.6804E+06
   4267      1     52      3      0.5075          0.6804E+06
   4268      1     52      4      0.4366          0.6804E+06
   4269      1     52      5      0.3773          0.6804E+06
   4270      1     52      6      0.3424          0.6804E+06
   4271      1     52      7      0.3261          0.6804E+06
   4272      1     52      8      0.3179          0.6804E+06
   4273      1     52      9      0.3149          0.6804E+06
   4274      1     52     10      0.3143          0.6804E+06
   4275      1     52     11      0.3148          0.6804E+06
   4276      1     52     12      0.3137          0.6804E+06
   4277      1     52     13      0.3010          0.6804E+06
   4278      1     52     14      0.2822          0.6804E+06
   4279      1     52     15      0.2558          0.6804E+06
   4280      1     52     16      0.2327          0.6804E+06
   4281      1     52     17      0.2073          0.6804E+06
   4282      1     52     18      0.1829          0.6804E+06
   4283      1     52     19      0.1628          0.6804E+06
   4284      1     52     20      0.1417          0.6804E+06
   4285      1     52     21      0.1245          0.6804E+06
   4286      1     52     22      0.1123          0.6804E+06
   4287      1     52     23      0.9941E-01      0.6804E+06
   4288      1     52     24      0.8616E-01      0.6804E+06
   4289      1     52     25      0.6153E-01      0.6804E+06
   4290      1     52     26      0.1179E-01      0.6804E+06
   4291      1     52     60       0.000          0.6804E+06
   4292      1     52     61       0.000          0.6804E+06
   4293      1     52     62       0.000          0.6804E+06
   4294      1     52     63       0.000          0.6804E+06
   4295      1     52     64       0.000          0.6804E+06
   4296      1     52     65       0.000          0.6804E+06
   4297      1     52     66       0.000          0.6804E+06
   4298      1     52     67       0.000          0.6804E+06
   4299      1     52     68       0.000          0.6804E+06
   4300      1     52     69       0.000          0.6804E+06
   4301      1     52     70       0.000          0.6804E+06
   4302      1     52     71       0.000          0.6804E+06
   4303      1     52     72       0.000          0.6804E+06
   4304      1     52     73       0.000          0.6804E+06
   4305      1     52     74       0.000          0.6804E+06
   4306      1     52     75       0.000          0.6804E+06
   4307      1     52     76       0.000          0.6804E+06
   4308      1     52     77      0.1572E-01      0.6804E+06
   4309      1     52     78      0.4284E-01      0.6804E+06
   4310      1     52     79      0.5901E-01      0.6804E+06
   4311      1     52     80      0.6666E-01      0.6804E+06
   4312      1     52     81      0.7299E-01      0.6804E+06
   4313      1     52     82      0.7746E-01      0.6804E+06
   4314      1     52     83      0.7968E-01      0.6804E+06
   4315      1     52     84      0.8252E-01      0.6804E+06
   4316      1     52     85      0.8423E-01      0.6804E+06
   4317      1     52     86      0.8557E-01      0.6804E+06
   4318      1     52     87      0.8694E-01      0.6804E+06
   4319      1     52     88      0.8758E-01      0.6804E+06
   4320      1     52     89      0.8741E-01      0.6804E+06
   4321      1     52     90      0.8709E-01      0.6804E+06
   4322      1     52     91      0.8682E-01      0.6804E+06
   4323      1     52     92      0.8502E-01      0.6804E+06
   4324      1     52     93      0.8294E-01      0.6804E+06
   4325      1     52     94      0.7981E-01      0.6804E+06
   4326      1     52     95      0.7585E-01      0.6804E+06
   4327      1     52     96      0.7188E-01      0.6804E+06
   4328      1     52     97      0.6865E-01      0.6804E+06
   4329      1     52     98      0.6960E-01      0.6804E+06
   4330      1     52     99      0.7478E-01      0.6804E+06
   4331      1     52    100      0.7955E-01      0.6804E+06
   4332      1     53      1      0.6516          0.6804E+06
   4333      1     53      2      0.5689          0.6804E+06
   4334      1     53      3      0.4989          0.6804E+06
   4335      1     53      4      0.4266          0.6804E+06
   4336      1     53      5      0.3680          0.6804E+06
   4337      1     53      6      0.3333          0.6804E+06
   4338      1     53      7      0.3159          0.6804E+06
   4339      1     53      8      0.3079          0.6804E+06
   4340      1     53      9      0.3056          0.6804E+06
   4341      1     53     10      0.3056          0.6804E+06
   4342      1     53     11      0.3059          0.6804E+06
   4343      1     53     12      0.3033          0.6804E+06
   4344      1     53     13      0.2912          0.6804E+06
   4345      1     53     14      0.2739          0.6804E+06
   4346      1     53     15      0.2486          0.6804E+06
   4347      1     53     16      0.2249          0.6804E+06
   4348      1     53     17      0.1988          0.6804E+06
   4349      1     53     18      0.1759          0.6804E+06
   4350      1     53     19      0.1590          0.6804E+06
   4351      1     53     20      0.1426          0.6804E+06
   4352      1     53     21      0.1282          0.6804E+06
   4353      1     53     22      0.1165          0.6804E+06
   4354      1     53     23      0.1024          0.6804E+06
   4355      1     53     24      0.8684E-01      0.6804E+06
   4356      1     53     25      0.5886E-01      0.6804E+06
   4357      1     53     26      0.2275E-01      0.6804E+06
   4358      1     53     27     -0.4083E-01      0.6804E+06
   4359      1     53     60       0.000          0.6804E+06
   4360      1     53     61       0.000          0.6804E+06
   4361      1     53     62       0.000          0.6804E+06
   4362      1     53     63       0.000          0.6804E+06
   4363      1     53     64       0.000          0.6804E+06
   4364      1     53     65       0.000          0.6804E+06
   4365      1     53     66       0.000          0.6804E+06
   4366      1     53     67       0.000          0.6804E+06
   4367      1     53     68       0.000          0.6804E+06
   4368      1     53     69       0.000          0.6804E+06
   4369      1     53     70       0.000          0.6804E+06
   4370      1     53     71       0.000          0.6804E+06
   4371      1     53     72       0.000          0.6804E+06
   4372      1     53     73       0.000          0.6804E+06
   4373      1     53     74       0.000          0.6804E+06
   4374      1     53     75       0.000          0.6804E+06
   4375      1     53     76       0.000          0.6804E+06
   4376      1     53     77      0.3067E-01      0.6804E+06
   4377      1     53     78      0.3098E-01      0.6804E+06
   4378      1     53     79      0.4053E-01      0.6804E+06
   4379      1     53     80      0.4985E-01      0.6804E+06
   4380      1     53     81      0.5936E-01      0.6804E+06
   4381      1     53     82      0.6622E-01      0.6804E+06
   4382      1     53     83      0.7034E-01      0.6804E+06
   4383      1     53     84      0.7698E-01      0.6804E+06
   4384      1     53     85      0.8097E-01      0.6804E+06
   4385      1     53     86      0.8344E-01      0.6804E+06
   4386      1     53     87      0.8571E-01      0.6804E+06
   4387      1     53     88      0.8765E-01      0.6804E+06
   4388      1     53     89      0.8923E-01      0.6804E+06
   4389      1     53     90      0.9073E-01      0.6804E+06
   4390      1     53     91      0.9206E-01      0.6804E+06
   4391      1     53     92      0.9175E-01      0.6804E+06
   4392      1     53     93      0.9055E-01      0.6804E+06
   4393      1     53     94      0.8819E-01      0.6804E+06
   4394      1     53     95      0.8493E-01      0.6804E+06
   4395      1     53     96      0.8153E-01      0.6804E+06
   4396      1     53     97      0.7871E-01      0.6804E+06
   4397      1     53     98      0.7956E-01      0.6804E+06
   4398      1     53     99      0.8438E-01      0.6804E+06
   4399      1     53    100      0.8848E-01      0.6804E+06
   4400      1     54      1      0.6457          0.6804E+06
   4401      1     54      2      0.5612          0.6804E+06
   4402      1     54      3      0.4902          0.6804E+06
   4403      1     54      4      0.4186          0.6804E+06
   4404      1     54      5      0.3628          0.6804E+06
   4405      1     54      6      0.3289          0.6804E+06
   4406      1     54      7      0.3089          0.6804E+06
   4407      1     54      8      0.3004          0.6804E+06
   4408      1     54      9      0.2982          0.6804E+06
   4409      1     54     10      0.2983          0.6804E+06
   4410      1     54     11      0.2982          0.6804E+06
   4411      1     54     12      0.2944          0.6804E+06
   4412      1     54     13      0.2827          0.6804E+06
   4413      1     54     14      0.2663          0.6804E+06
   4414      1     54     15      0.2418          0.6804E+06
   4415      1     54     16      0.2176          0.6804E+06
   4416      1     54     17      0.1901          0.6804E+06
   4417      1     54     18      0.1683          0.6804E+06
   4418      1     54     19      0.1550          0.6804E+06
   4419      1     54     20      0.1420          0.6804E+06
   4420      1     54     21      0.1300          0.6804E+06
   4421      1     54     22      0.1195          0.6804E+06
   4422      1     54     23      0.1059          0.6804E+06
   4423      1     54     24      0.9019E-01      0.6804E+06
   4424      1     54     25      0.6155E-01      0.6804E+06
   4425      1     54     26      0.2269E-01      0.6804E+06
   4426      1     54     27     -0.3953E-01      0.6804E+06
   4427      1     54     60       0.000          0.6804E+06
   4428      1     54     61       0.000          0.6804E+06
   4429      1     54     62       0.000          0.6804E+06
   4430      1     54     63       0.000          0.6804E+06
   4431      1     54     64       0.000          0.6804E+06
   4432      1     54     65       0.000          0.6804E+06
   4433      1     54     66       0.000          0.6804E+06
   4434      1     54     67       0.000          0.6804E+06
   4435      1     54     68       0.000          0.6804E+06
   4436      1     54     69       0.000          0.6804E+06
   4437      1     54     70       0.000          0.6804E+06
   4438      1     54     71       0.000          0.6804E+06
   4439      1     54     72       0.000          0.6804E+06
   4440      1     54     73       0.000          0.6804E+06
   4441      1     54     74       0.000          0.6804E+06
   4442      1     54     75       0.000          0.6804E+06
   4443      1     54     76       0.000          0.6804E+06
   4444      1     54     77       0.000          0.6804E+06
   4445      1     54     78      0.5129E-02      0.6804E+06
   4446      1     54     79      0.1917E-01      0.6804E+06
   4447      1     54     80      0.3284E-01      0.6804E+06
   4448      1     54     81      0.4660E-01      0.6804E+06
   4449      1     54     82      0.5659E-01      0.6804E+06
   4450      1     54     83      0.6343E-01      0.6804E+06
   4451      1     54     84      0.7243E-01      0.6804E+06
   4452      1     54     85      0.7830E-01      0.6804E+06
   4453      1     54     86      0.8232E-01      0.6804E+06
   4454      1     54     87      0.8526E-01      0.6804E+06
   4455      1     54     88      0.8826E-01      0.6804E+06
   4456      1     54     89      0.9161E-01      0.6804E+06
   4457      1     54     90      0.9485E-01      0.6804E+06
   4458      1     54     91      0.9743E-01      0.6804E+06
   4459      1     54     92      0.9865E-01      0.6804E+06
   4460      1     54     93      0.9860E-01      0.6804E+06
   4461      1     54     94      0.9746E-01      0.6804E+06
   4462      1     54     95      0.9557E-01      0.6804E+06
   4463      1     54     96      0.9364E-01      0.6804E+06
   4464      1     54     97      0.9232E-01      0.6804E+06
   4465      1     54     98      0.9299E-01      0.6804E+06
   4466      1     54     99      0.9595E-01      0.6804E+06
   4467      1     54    100      0.9876E-01      0.6804E+06
   4468      1     55      1      0.6371          0.6804E+06
   4469      1     55      2      0.5506          0.6804E+06
   4470      1     55      3      0.4782          0.6804E+06
   4471      1     55      4      0.4064          0.6804E+06
   4472      1     55      5      0.3519          0.6804E+06
   4473      1     55      6      0.3198          0.6804E+06
   4474      1     55      7      0.3006          0.6804E+06
   4475      1     55      8      0.2928          0.6804E+06
   4476      1     55      9      0.2910          0.6804E+06
   4477      1     55     10      0.2914          0.6804E+06
   4478      1     55     11      0.2914          0.6804E+06
   4479      1     55     12      0.2875          0.6804E+06
   4480      1     55     13      0.2758          0.6804E+06
   4481      1     55     14      0.2597          0.6804E+06
   4482      1     55     15      0.2356          0.6804E+06
   4483      1     55     16      0.2117          0.6804E+06
   4484      1     55     17      0.1848          0.6804E+06
   4485      1     55     18      0.1648          0.6804E+06
   4486      1     55     19      0.1541          0.6804E+06
   4487      1     55     20      0.1429          0.6804E+06
   4488      1     55     21      0.1329          0.6804E+06
   4489      1     55     22      0.1240          0.6804E+06
   4490      1     55     23      0.1118          0.6804E+06
   4491      1     55     24      0.9718E-01      0.6804E+06
   4492      1     55     25      0.7122E-01      0.6804E+06
   4493      1     55     26      0.3151E-01      0.6804E+06
   4494      1     55     27     -0.1204E-01      0.6804E+06
   4495      1     55     60       0.000          0.6804E+06
   4496      1     55     61       0.000          0.6804E+06
   4497      1     55     62       0.000          0.6804E+06
   4498      1     55     63       0.000          0.6804E+06
   4499      1     55     64       0.000          0.6804E+06
   4500      1     55     65       0.000          0.6804E+06
   4501      1     55     66       0.000          0.6804E+06
   4502      1     55     67       0.000          0.6804E+06
   4503      1     55     68       0.000          0.6804E+06
   4504      1     55     69       0.000          0.6804E+06
   4505      1     55     70       0.000          0.6804E+06
   4506      1     55     71       0.000          0.6804E+06
   4507      1     55     72       0.000          0.6804E+06
   4508      1     55     73       0.000          0.6804E+06
   4509      1     55     74       0.000          0.6804E+06
   4510      1     55     75       0.000          0.6804E+06
   4511      1     55     76       0.000          0.6804E+06
   4512      1     55     77       0.000          0.6804E+06
   4513      1     55     78       0.000          0.6804E+06
   4514      1     55     79       0.000          0.6804E+06
   4515      1     55     80      0.1475E-01      0.6804E+06
   4516      1     55     81      0.3321E-01      0.6804E+06
   4517      1     55     82      0.4759E-01      0.6804E+06
   4518      1     55     83      0.5775E-01      0.6804E+06
   4519      1     55     84      0.6920E-01      0.6804E+06
   4520      1     55     85      0.7678E-01      0.6804E+06
   4521      1     55     86      0.8222E-01      0.6804E+06
   4522      1     55     87      0.8665E-01      0.6804E+06
   4523      1     55     88      0.9097E-01      0.6804E+06
   4524      1     55     89      0.9613E-01      0.6804E+06
   4525      1     55     90      0.1012          0.6804E+06
   4526      1     55     91      0.1052          0.6804E+06
   4527      1     55     92      0.1084          0.6804E+06
   4528      1     55     93      0.1098          0.6804E+06
   4529      1     55     94      0.1102          0.6804E+06
   4530      1     55     95      0.1099          0.6804E+06
   4531      1     55     96      0.1094          0.6804E+06
   4532      1     55     97      0.1092          0.6804E+06
   4533      1     55     98      0.1098          0.6804E+06
   4534      1     55     99      0.1116          0.6804E+06
   4535      1     55    100      0.1131          0.6804E+06
   4536      1     56      1      0.6312          0.6804E+06
   4537      1     56      2      0.5409          0.6804E+06
   4538      1     56      3      0.4642          0.6804E+06
   4539      1     56      4      0.3887          0.6804E+06
   4540      1     56      5      0.3345          0.6804E+06
   4541      1     56      6      0.3061          0.6804E+06
   4542      1     56      7      0.2913          0.6804E+06
   4543      1     56      8      0.2862          0.6804E+06
   4544      1     56      9      0.2857          0.6804E+06
   4545      1     56     10      0.2869          0.6804E+06
   4546      1     56     11      0.2876          0.6804E+06
   4547      1     56     12      0.2847          0.6804E+06
   4548      1     56     13      0.2729          0.6804E+06
   4549      1     56     14      0.2561          0.6804E+06
   4550      1     56     15      0.2319          0.6804E+06
   4551      1     56     16      0.2096          0.6804E+06
   4552      1     56     17      0.1859          0.6804E+06
   4553      1     56     18      0.1684          0.6804E+06
   4554      1     56     19      0.1589          0.6804E+06
   4555      1     56     20      0.1490          0.6804E+06
   4556      1     56     21      0.1399          0.6804E+06
   4557      1     56     22      0.1312          0.6804E+06
   4558      1     56     23      0.1194          0.6804E+06
   4559      1     56     24      0.1062          0.6804E+06
   4560      1     56     25      0.8524E-01      0.6804E+06
   4561      1     56     26      0.5596E-01      0.6804E+06
   4562      1     56     27      0.1974E-01      0.6804E+06
   4563      1     56     60       0.000          0.6804E+06
   4564      1     56     61       0.000          0.6804E+06
   4565      1     56     62       0.000          0.6804E+06
   4566      1     56     63       0.000          0.6804E+06
   4567      1     56     64       0.000          0.6804E+06
   4568      1     56     65       0.000          0.6804E+06
   4569      1     56     66       0.000          0.6804E+06
   4570      1     56     67       0.000          0.6804E+06
   4571      1     56     68       0.000          0.6804E+06
   4572      1     56     69       0.000          0.6804E+06
   4573      1     56     70       0.000          0.6804E+06
   4574      1     56     71       0.000          0.6804E+06
   4575      1     56     72       0.000          0.6804E+06
   4576      1     56     73       0.000          0.6804E+06
   4577      1     56     74       0.000          0.6804E+06
   4578      1     56     75       0.000          0.6804E+06
   4579      1     56     76       0.000          0.6804E+06
   4580      1     56     77       0.000          0.6804E+06
   4581      1     56     78       0.000          0.6804E+06
   4582      1     56     79       0.000          0.6804E+06
   4583      1     56     80      0.2085E-02      0.6804E+06
   4584      1     56     81      0.2358E-01      0.6804E+06
   4585      1     56     82      0.4190E-01      0.6804E+06
   4586      1     56     83      0.5476E-01      0.6804E+06
   4587      1     56     84      0.6855E-01      0.6804E+06
   4588      1     56     85      0.7777E-01      0.6804E+06
   4589      1     56     86      0.8464E-01      0.6804E+06
   4590      1     56     87      0.9097E-01      0.6804E+06
   4591      1     56     88      0.9667E-01      0.6804E+06
   4592      1     56     89      0.1034          0.6804E+06
   4593      1     56     90      0.1098          0.6804E+06
   4594      1     56     91      0.1150          0.6804E+06
   4595      1     56     92      0.1195          0.6804E+06
   4596      1     56     93      0.1222          0.6804E+06
   4597      1     56     94      0.1241          0.6804E+06
   4598      1     56     95      0.1254          0.6804E+06
   4599      1     56     96      0.1262          0.6804E+06
   4600      1     56     97      0.1269          0.6804E+06
   4601      1     56     98      0.1277          0.6804E+06
   4602      1     56     99      0.1290          0.6804E+06
   4603      1     56    100      0.1295          0.6804E+06
   4604      1     57      1      0.6304          0.6804E+06
   4605      1     57      2      0.5364          0.6804E+06
   4606      1     57      3      0.4541          0.6804E+06
   4607      1     57      4      0.3704          0.6804E+06
   4608      1     57      5      0.3153          0.6804E+06
   4609      1     57      6      0.2940          0.6804E+06
   4610      1     57      7      0.2853          0.6804E+06
   4611      1     57      8      0.2832          0.6804E+06
   4612      1     57      9      0.2837          0.6804E+06
   4613      1     57     10      0.2851          0.6804E+06
   4614      1     57     11      0.2857          0.6804E+06
   4615      1     57     12      0.2836          0.6804E+06
   4616      1     57     13      0.2715          0.6804E+06
   4617      1     57     14      0.2540          0.6804E+06
   4618      1     57     15      0.2299          0.6804E+06
   4619      1     57     16      0.2093          0.6804E+06
   4620      1     57     17      0.1891          0.6804E+06
   4621      1     57     18      0.1748          0.6804E+06
   4622      1     57     19      0.1672          0.6804E+06
   4623      1     57     20      0.1603          0.6804E+06
   4624      1     57     21      0.1507          0.6804E+06
   4625      1     57     22      0.1400          0.6804E+06
   4626      1     57     23      0.1263          0.6804E+06
   4627      1     57     24      0.1140          0.6804E+06
   4628      1     57     25      0.9739E-01      0.6804E+06
   4629      1     57     26      0.7617E-01      0.6804E+06
   4630      1     57     27      0.5181E-01      0.6804E+06
   4631      1     57     28      0.1336E-01      0.6804E+06
   4632      1     57     60       0.000          0.6804E+06
   4633      1     57     61       0.000          0.6804E+06
   4634      1     57     62       0.000          0.6804E+06
   4635      1     57     63       0.000          0.6804E+06
   4636      1     57     64       0.000          0.6804E+06
   4637      1     57     65       0.000          0.6804E+06
   4638      1     57     66       0.000          0.6804E+06
   4639      1     57     67       0.000          0.6804E+06
   4640      1     57     68       0.000          0.6804E+06
   4641      1     57     69       0.000          0.6804E+06
   4642      1     57     70       0.000          0.6804E+06
   4643      1     57     71       0.000          0.6804E+06
   4644      1     57     72       0.000          0.6804E+06
   4645      1     57     73       0.000          0.6804E+06
   4646      1     57     74       0.000          0.6804E+06
   4647      1     57     75       0.000          0.6804E+06
   4648      1     57     76       0.000          0.6804E+06
   4649      1     57     77       0.000          0.6804E+06
   4650      1     57     78       0.000          0.6804E+06
   4651      1     57     79       0.000          0.6804E+06
   4652      1     57     80       0.000          0.6804E+06
   4653      1     57     81      0.2049E-01      0.6804E+06
   4654      1     57     82      0.4031E-01      0.6804E+06
   4655      1     57     83      0.5477E-01      0.6804E+06
   4656      1     57     84      0.7030E-01      0.6804E+06
   4657      1     57     85      0.8112E-01      0.6804E+06
   4658      1     57     86      0.8956E-01      0.6804E+06
   4659      1     57     87      0.9740E-01      0.6804E+06
   4660      1     57     88      0.1041          0.6804E+06
   4661      1     57     89      0.1119          0.6804E+06
   4662      1     57     90      0.1193          0.6804E+06
   4663      1     57     91      0.1253          0.6804E+06
   4664      1     57     92      0.1307          0.6804E+06
   4665      1     57     93      0.1343          0.6804E+06
   4666      1     57     94      0.1375          0.6804E+06
   4667      1     57     95      0.1399          0.6804E+06
   4668      1     57     96      0.1416          0.6804E+06
   4669      1     57     97      0.1430          0.6804E+06
   4670      1     57     98      0.1441          0.6804E+06
   4671      1     57     99      0.1452          0.6804E+06
   4672      1     57    100      0.1453          0.6804E+06
   4673      1     58      1      0.6357          0.6804E+06
   4674      1     58      2      0.5398          0.6804E+06
   4675      1     58      3      0.4534          0.6804E+06
   4676      1     58      4      0.3633          0.6804E+06
   4677      1     58      5      0.3074          0.6804E+06
   4678      1     58      6      0.2914          0.6804E+06
   4679      1     58      7      0.2860          0.6804E+06
   4680      1     58      8      0.2850          0.6804E+06
   4681      1     58      9      0.2852          0.6804E+06
   4682      1     58     10      0.2853          0.6804E+06
   4683      1     58     11      0.2844          0.6804E+06
   4684      1     58     12      0.2801          0.6804E+06
   4685      1     58     13      0.2674          0.6804E+06
   4686      1     58     14      0.2503          0.6804E+06
   4687      1     58     15      0.2270          0.6804E+06
   4688      1     58     16      0.2072          0.6804E+06
   4689      1     58     17      0.1894          0.6804E+06
   4690      1     58     18      0.1784          0.6804E+06
   4691      1     58     19      0.1751          0.6804E+06
   4692      1     58     20      0.1748          0.6804E+06
   4693      1     58     21      0.1637          0.6804E+06
   4694      1     58     22      0.1485          0.6804E+06
   4695      1     58     23      0.1314          0.6804E+06
   4696      1     58     24      0.1192          0.6804E+06
   4697      1     58     25      0.1056          0.6804E+06
   4698      1     58     26      0.8914E-01      0.6804E+06
   4699      1     58     27      0.6916E-01      0.6804E+06
   4700      1     58     28      0.3482E-01      0.6804E+06
   4701      1     58     60       0.000          0.6804E+06
   4702      1     58     61       0.000          0.6804E+06
   4703      1     58     62       0.000          0.6804E+06
   4704      1     58     63       0.000          0.6804E+06
   4705      1     58     64       0.000          0.6804E+06
   4706      1     58     65       0.000          0.6804E+06
   4707      1     58     66       0.000          0.6804E+06
   4708      1     58     67       0.000          0.6804E+06
   4709      1     58     68       0.000          0.6804E+06
   4710      1     58     69       0.000          0.6804E+06
   4711      1     58     70       0.000          0.6804E+06
   4712      1     58     71       0.000          0.6804E+06
   4713      1     58     72       0.000          0.6804E+06
   4714      1     58     73       0.000          0.6804E+06
   4715      1     58     74       0.000          0.6804E+06
   4716      1     58     75       0.000          0.6804E+06
   4717      1     58     76       0.000          0.6804E+06
   4718      1     58     77       0.000          0.6804E+06
   4719      1     58     78       0.000          0.6804E+06
   4720      1     58     79       0.000          0.6804E+06
   4721      1     58     80       0.000          0.6804E+06
   4722      1     58     81      0.2124E-01      0.6804E+06
   4723      1     58     82      0.4235E-01      0.6804E+06
   4724      1     58     83      0.5872E-01      0.6804E+06
   4725      1     58     84      0.7556E-01      0.6804E+06
   4726      1     58     85      0.8743E-01      0.6804E+06
   4727      1     58     86      0.9713E-01      0.6804E+06
   4728      1     58     87      0.1062          0.6804E+06
   4729      1     58     88      0.1138          0.6804E+06
   4730      1     58     89      0.1227          0.6804E+06
   4731      1     58     90      0.1315          0.6804E+06
   4732      1     58     91      0.1380          0.6804E+06
   4733      1     58     92      0.1443          0.6804E+06
   4734      1     58     93      0.1488          0.6804E+06
   4735      1     58     94      0.1527          0.6804E+06
   4736      1     58     95      0.1560          0.6804E+06
   4737      1     58     96      0.1583          0.6804E+06
   4738      1     58     97      0.1603          0.6804E+06
   4739      1     58     98      0.1617          0.6804E+06
   4740      1     58     99      0.1629          0.6804E+06
   4741      1     58    100      0.1629          0.6804E+06
   4742      1     59      1      0.6494          0.6804E+06
   4743      1     59      2      0.5567          0.6804E+06
   4744      1     59      3      0.4732          0.6804E+06
   4745      1     59      4      0.3870          0.6804E+06
   4746      1     59      5      0.3298          0.6804E+06
   4747      1     59      6      0.3085          0.6804E+06
   4748      1     59      7      0.2980          0.6804E+06
   4749      1     59      8      0.2934          0.6804E+06
   4750      1     59      9      0.2909          0.6804E+06
   4751      1     59     10      0.2882          0.6804E+06
   4752      1     59     11      0.2849          0.6804E+06
   4753      1     59     12      0.2776          0.6804E+06
   4754      1     59     13      0.2639          0.6804E+06
   4755      1     59     14      0.2469          0.6804E+06
   4756      1     59     15      0.2236          0.6804E+06
   4757      1     59     16      0.2030          0.6804E+06
   4758      1     59     17      0.1850          0.6804E+06
   4759      1     59     18      0.1755          0.6804E+06
   4760      1     59     19      0.1749          0.6804E+06
   4761      1     59     20      0.1754          0.6804E+06
   4762      1     59     21      0.1638          0.6804E+06
   4763      1     59     22      0.1476          0.6804E+06
   4764      1     59     23      0.1293          0.6804E+06
   4765      1     59     24      0.1181          0.6804E+06
   4766      1     59     25      0.1070          0.6804E+06
   4767      1     59     26      0.9443E-01      0.6804E+06
   4768      1     59     27      0.7971E-01      0.6804E+06
   4769      1     59     28      0.5402E-01      0.6804E+06
   4770      1     59     61       0.000          0.6804E+06
   4771      1     59     62       0.000          0.6804E+06
   4772      1     59     63       0.000          0.6804E+06
   4773      1     59     64       0.000          0.6804E+06
   4774      1     59     65       0.000          0.6804E+06
   4775      1     59     66       0.000          0.6804E+06
   4776      1     59     67       0.000          0.6804E+06
   4777      1     59     68       0.000          0.6804E+06
   4778      1     59     69       0.000          0.6804E+06
   4779      1     59     70       0.000          0.6804E+06
   4780      1     59     71       0.000          0.6804E+06
   4781      1     59     72       0.000          0.6804E+06
   4782      1     59     73       0.000          0.6804E+06
   4783      1     59     74       0.000          0.6804E+06
   4784      1     59     75       0.000          0.6804E+06
   4785      1     59     76       0.000          0.6804E+06
   4786      1     59     77       0.000          0.6804E+06
   4787      1     59     78       0.000          0.6804E+06
   4788      1     59     79       0.000          0.6804E+06
   4789      1     59     80      0.1650E-02      0.6804E+06
   4790      1     59     81      0.2706E-01      0.6804E+06
   4791      1     59     82      0.4928E-01      0.6804E+06
   4792      1     59     83      0.6667E-01      0.6804E+06
   4793      1     59     84      0.8386E-01      0.6804E+06
   4794      1     59     85      0.9644E-01      0.6804E+06
   4795      1     59     86      0.1079          0.6804E+06
   4796      1     59     87      0.1176          0.6804E+06
   4797      1     59     88      0.1263          0.6804E+06
   4798      1     59     89      0.1368          0.6804E+06
   4799      1     59     90      0.1469          0.6804E+06
   4800      1     59     91      0.1541          0.6804E+06
   4801      1     59     92      0.1614          0.6804E+06
   4802      1     59     93      0.1668          0.6804E+06
   4803      1     59     94      0.1716          0.6804E+06
   4804      1     59     95      0.1757          0.6804E+06
   4805      1     59     96      0.1789          0.6804E+06
   4806      1     59     97      0.1816          0.6804E+06
   4807      1     59     98      0.1835          0.6804E+06
   4808      1     59     99      0.1850          0.6804E+06
   4809      1     59    100      0.1851          0.6804E+06
   4810      1     60      1      0.6688          0.6804E+06
   4811      1     60      2      0.5820          0.6804E+06
   4812      1     60      3      0.5054          0.6804E+06
   4813      1     60      4      0.4270          0.6804E+06
   4814      1     60      5      0.3690          0.6804E+06
   4815      1     60      6      0.3378          0.6804E+06
   4816      1     60      7      0.3171          0.6804E+06
   4817      1     60      8      0.3057          0.6804E+06
   4818      1     60      9      0.2989          0.6804E+06
   4819      1     60     10      0.2927          0.6804E+06
   4820      1     60     11      0.2873          0.6804E+06
   4821      1     60     12      0.2784          0.6804E+06
   4822      1     60     13      0.2638          0.6804E+06
   4823      1     60     14      0.2457          0.6804E+06
   4824      1     60     15      0.2212          0.6804E+06
   4825      1     60     16      0.1994          0.6804E+06
   4826      1     60     17      0.1803          0.6804E+06
   4827      1     60     18      0.1710          0.6804E+06
   4828      1     60     19      0.1713          0.6804E+06
   4829      1     60     20      0.1696          0.6804E+06
   4830      1     60     21      0.1578          0.6804E+06
   4831      1     60     22      0.1417          0.6804E+06
   4832      1     60     23      0.1228          0.6804E+06
   4833      1     60     24      0.1137          0.6804E+06
   4834      1     60     25      0.1050          0.6804E+06
   4835      1     60     26      0.9487E-01      0.6804E+06
   4836      1     60     27      0.8268E-01      0.6804E+06
   4837      1     60     28      0.6146E-01      0.6804E+06
   4838      1     60     61       0.000          0.6804E+06
   4839      1     60     62       0.000          0.6804E+06
   4840      1     60     63       0.000          0.6804E+06
   4841      1     60     64       0.000          0.6804E+06
   4842      1     60     65       0.000          0.6804E+06
   4843      1     60     66       0.000          0.6804E+06
   4844      1     60     67       0.000          0.6804E+06
   4845      1     60     68       0.000          0.6804E+06
   4846      1     60     69       0.000          0.6804E+06
   4847      1     60     70       0.000          0.6804E+06
   4848      1     60     71       0.000          0.6804E+06
   4849      1     60     72       0.000          0.6804E+06
   4850      1     60     73       0.000          0.6804E+06
   4851      1     60     74       0.000          0.6804E+06
   4852      1     60     75       0.000          0.6804E+06
   4853      1     60     76       0.000          0.6804E+06
   4854      1     60     77       0.000          0.6804E+06
   4855      1     60     78       0.000          0.6804E+06
   4856      1     60     79       0.000          0.6804E+06
   4857      1     60     80      0.1271E-01      0.6804E+06
   4858      1     60     81      0.3838E-01      0.6804E+06
   4859      1     60     82      0.6108E-01      0.6804E+06
   4860      1     60     83      0.7876E-01      0.6804E+06
   4861      1     60     84      0.9578E-01      0.6804E+06
   4862      1     60     85      0.1085          0.6804E+06
   4863      1     60     86      0.1211          0.6804E+06
   4864      1     60     87      0.1311          0.6804E+06
   4865      1     60     88      0.1402          0.6804E+06
   4866      1     60     89      0.1514          0.6804E+06
   4867      1     60     90      0.1617          0.6804E+06
   4868      1     60     91      0.1691          0.6804E+06
   4869      1     60     92      0.1767          0.6804E+06
   4870      1     60     93      0.1824          0.6804E+06
   4871      1     60     94      0.1876          0.6804E+06
   4872      1     60     95      0.1923          0.6804E+06
   4873      1     60     96      0.1959          0.6804E+06
   4874      1     60     97      0.1991          0.6804E+06
   4875      1     60     98      0.2014          0.6804E+06
   4876      1     60     99      0.2032          0.6804E+06
   4877      1     60    100      0.2035          0.6804E+06
   4878      1     61      1      0.6976          0.6804E+06
   4879      1     61      2      0.6178          0.6804E+06
   4880      1     61      3      0.5477          0.6804E+06
   4881      1     61      4      0.4742          0.6804E+06
   4882      1     61      5      0.4134          0.6804E+06
   4883      1     61      6      0.3726          0.6804E+06
   4884      1     61      7      0.3405          0.6804E+06
   4885      1     61      8      0.3211          0.6804E+06
   4886      1     61      9      0.3091          0.6804E+06
   4887      1     61     10      0.2979          0.6804E+06
   4888      1     61     11      0.2905          0.6804E+06
   4889      1     61     12      0.2818          0.6804E+06
   4890      1     61     13      0.2666          0.6804E+06
   4891      1     61     14      0.2464          0.6804E+06
   4892      1     61     15      0.2205          0.6804E+06
   4893      1     61     16      0.1984          0.6804E+06
   4894      1     61     17      0.1790          0.6804E+06
   4895      1     61     18      0.1690          0.6804E+06
   4896      1     61     19      0.1679          0.6804E+06
   4897      1     61     20      0.1635          0.6804E+06
   4898      1     61     21      0.1507          0.6804E+06
   4899      1     61     22      0.1343          0.6804E+06
   4900      1     61     23      0.1152          0.6804E+06
   4901      1     61     24      0.1078          0.6804E+06
   4902      1     61     25      0.1013          0.6804E+06
   4903      1     61     26      0.9303E-01      0.6804E+06
   4904      1     61     27      0.8277E-01      0.6804E+06
   4905      1     61     28      0.6609E-01      0.6804E+06
   4906      1     61     61       0.000          0.6804E+06
   4907      1     61     62       0.000          0.6804E+06
   4908      1     61     63       0.000          0.6804E+06
   4909      1     61     64       0.000          0.6804E+06
   4910      1     61     65       0.000          0.6804E+06
   4911      1     61     66       0.000          0.6804E+06
   4912      1     61     67       0.000          0.6804E+06
   4913      1     61     68       0.000          0.6804E+06
   4914      1     61     69       0.000          0.6804E+06
   4915      1     61     70       0.000          0.6804E+06
   4916      1     61     71       0.000          0.6804E+06
   4917      1     61     72       0.000          0.6804E+06
   4918      1     61     73       0.000          0.6804E+06
   4919      1     61     74       0.000          0.6804E+06
   4920      1     61     75       0.000          0.6804E+06
   4921      1     61     76       0.000          0.6804E+06
   4922      1     61     77       0.000          0.6804E+06
   4923      1     61     78       0.000          0.6804E+06
   4924      1     61     79      0.3636E-02      0.6804E+06
   4925      1     61     80      0.3003E-01      0.6804E+06
   4926      1     61     81      0.5554E-01      0.6804E+06
   4927      1     61     82      0.7794E-01      0.6804E+06
   4928      1     61     83      0.9543E-01      0.6804E+06
   4929      1     61     84      0.1124          0.6804E+06
   4930      1     61     85      0.1255          0.6804E+06
   4931      1     61     86      0.1392          0.6804E+06
   4932      1     61     87      0.1499          0.6804E+06
   4933      1     61     88      0.1593          0.6804E+06
   4934      1     61     89      0.1704          0.6804E+06
   4935      1     61     90      0.1802          0.6804E+06
   4936      1     61     91      0.1875          0.6804E+06
   4937      1     61     92      0.1949          0.6804E+06
   4938      1     61     93      0.2007          0.6804E+06
   4939      1     61     94      0.2062          0.6804E+06
   4940      1     61     95      0.2114          0.6804E+06
   4941      1     61     96      0.2155          0.6804E+06
   4942      1     61     97      0.2193          0.6804E+06
   4943      1     61     98      0.2220          0.6804E+06
   4944      1     61     99      0.2241          0.6804E+06
   4945      1     61    100      0.2246          0.6804E+06
   4946      1     62      1      0.7240          0.6804E+06
   4947      1     62      2      0.6493          0.6804E+06
   4948      1     62      3      0.5830          0.6804E+06
   4949      1     62      4      0.5107          0.6804E+06
   4950      1     62      5      0.4463          0.6804E+06
   4951      1     62      6      0.3983          0.6804E+06
   4952      1     62      7      0.3567          0.6804E+06
   4953      1     62      8      0.3291          0.6804E+06
   4954      1     62      9      0.3119          0.6804E+06
   4955      1     62     10      0.2971          0.6804E+06
   4956      1     62     11      0.2883          0.6804E+06
   4957      1     62     12      0.2802          0.6804E+06
   4958      1     62     13      0.2656          0.6804E+06
   4959      1     62     14      0.2444          0.6804E+06
   4960      1     62     15      0.2195          0.6804E+06
   4961      1     62     16      0.2002          0.6804E+06
   4962      1     62     17      0.1834          0.6804E+06
   4963      1     62     18      0.1738          0.6804E+06
   4964      1     62     19      0.1698          0.6804E+06
   4965      1     62     20      0.1632          0.6804E+06
   4966      1     62     21      0.1495          0.6804E+06
   4967      1     62     22      0.1331          0.6804E+06
   4968      1     62     23      0.1147          0.6804E+06
   4969      1     62     24      0.1041          0.6804E+06
   4970      1     62     25      0.9581E-01      0.6804E+06
   4971      1     62     26      0.8906E-01      0.6804E+06
   4972      1     62     27      0.8189E-01      0.6804E+06
   4973      1     62     28      0.7195E-01      0.6804E+06
   4974      1     62     62       0.000          0.6804E+06
   4975      1     62     63       0.000          0.6804E+06
   4976      1     62     64       0.000          0.6804E+06
   4977      1     62     65       0.000          0.6804E+06
   4978      1     62     66       0.000          0.6804E+06
   4979      1     62     67       0.000          0.6804E+06
   4980      1     62     68       0.000          0.6804E+06
   4981      1     62     69       0.000          0.6804E+06
   4982      1     62     70       0.000          0.6804E+06
   4983      1     62     71       0.000          0.6804E+06
   4984      1     62     72       0.000          0.6804E+06
   4985      1     62     73       0.000          0.6804E+06
   4986      1     62     74       0.000          0.6804E+06
   4987      1     62     75       0.000          0.6804E+06
   4988      1     62     76       0.000          0.6804E+06
   4989      1     62     77       0.000          0.6804E+06
   4990      1     62     78       0.000          0.6804E+06
   4991      1     62     79      0.2687E-01      0.6804E+06
   4992      1     62     80      0.5086E-01      0.6804E+06
   4993      1     62     81      0.7451E-01      0.6804E+06
   4994      1     62     82      0.9576E-01      0.6804E+06
   4995      1     62     83      0.1131          0.6804E+06
   4996      1     62     84      0.1301          0.6804E+06
   4997      1     62     85      0.1434          0.6804E+06
   4998      1     62     86      0.1578          0.6804E+06
   4999      1     62     87      0.1699          0.6804E+06
   5000      1     62     88      0.1792          0.6804E+06
   5001      1     62     89      0.1893          0.6804E+06
   5002      1     62     90      0.1978          0.6804E+06
   5003      1     62     91      0.2042          0.6804E+06
   5004      1     62     92      0.2111          0.6804E+06
   5005      1     62     93      0.2166          0.6804E+06
   5006      1     62     94      0.2222          0.6804E+06
   5007      1     62     95      0.2277          0.6804E+06
   5008      1     62     96      0.2323          0.6804E+06
   5009      1     62     97      0.2367          0.6804E+06
   5010      1     62     98      0.2399          0.6804E+06
   5011      1     62     99      0.2420          0.6804E+06
   5012      1     62    100      0.2425          0.6804E+06
   5013      1     63      1      0.7647          0.6804E+06
   5014      1     63      2      0.6953          0.6804E+06
   5015      1     63      3      0.6322          0.6804E+06
   5016      1     63      4      0.5590          0.6804E+06
   5017      1     63      5      0.4875          0.6804E+06
   5018      1     63      6      0.4283          0.6804E+06
   5019      1     63      7      0.3718          0.6804E+06
   5020      1     63      8      0.3312          0.6804E+06
   5021      1     63      9      0.3063          0.6804E+06
   5022      1     63     10      0.2882          0.6804E+06
   5023      1     63     11      0.2781          0.6804E+06
   5024      1     63     12      0.2691          0.6804E+06
   5025      1     63     13      0.2554          0.6804E+06
   5026      1     63     14      0.2363          0.6804E+06
   5027      1     63     15      0.2153          0.6804E+06
   5028      1     63     16      0.2003          0.6804E+06
   5029      1     63     17      0.1874          0.6804E+06
   5030      1     63     18      0.1789          0.6804E+06
   5031      1     63     19      0.1732          0.6804E+06
   5032      1     63     20      0.1645          0.6804E+06
   5033      1     63     21      0.1499          0.6804E+06
   5034      1     63     22      0.1328          0.6804E+06
   5035      1     63     23      0.1128          0.6804E+06
   5036      1     63     24      0.9874E-01      0.6804E+06
   5037      1     63     25      0.8765E-01      0.6804E+06
   5038      1     63     26      0.8152E-01      0.6804E+06
   5039      1     63     27      0.7855E-01      0.6804E+06
   5040      1     63     28      0.7447E-01      0.6804E+06
   5041      1     63     29      0.6772E-01      0.6804E+06
   5042      1     63     62       0.000          0.6804E+06
   5043      1     63     63       0.000          0.6804E+06
   5044      1     63     64       0.000          0.6804E+06
   5045      1     63     65       0.000          0.6804E+06
   5046      1     63     66       0.000          0.6804E+06
   5047      1     63     67       0.000          0.6804E+06
   5048      1     63     68       0.000          0.6804E+06
   5049      1     63     69       0.000          0.6804E+06
   5050      1     63     70       0.000          0.6804E+06
   5051      1     63     71       0.000          0.6804E+06
   5052      1     63     72       0.000          0.6804E+06
   5053      1     63     73       0.000          0.6804E+06
   5054      1     63     74       0.000          0.6804E+06
   5055      1     63     75       0.000          0.6804E+06
   5056      1     63     76       0.000          0.6804E+06
   5057      1     63     77       0.000          0.6804E+06
   5058      1     63     78      0.3195E-01      0.6804E+06
   5059      1     63     79      0.5937E-01      0.6804E+06
   5060      1     63     80      0.7975E-01      0.6804E+06
   5061      1     63     81      0.1004          0.6804E+06
   5062      1     63     82      0.1196          0.6804E+06
   5063      1     63     83      0.1355          0.6804E+06
   5064      1     63     84      0.1520          0.6804E+06
   5065      1     63     85      0.1655          0.6804E+06
   5066      1     63     86      0.1807          0.6804E+06
   5067      1     63     87      0.1938          0.6804E+06
   5068      1     63     88      0.2029          0.6804E+06
   5069      1     63     89      0.2111          0.6804E+06
   5070      1     63     90      0.2174          0.6804E+06
   5071      1     63     91      0.2226          0.6804E+06
   5072      1     63     92      0.2287          0.6804E+06
   5073      1     63     93      0.2339          0.6804E+06
   5074      1     63     94      0.2395          0.6804E+06
   5075      1     63     95      0.2455          0.6804E+06
   5076      1     63     96      0.2505          0.6804E+06
   5077      1     63     97      0.2555          0.6804E+06
   5078      1     63     98      0.2592          0.6804E+06
   5079      1     63     99      0.2613          0.6804E+06
   5080      1     63    100      0.2618          0.6804E+06
   5081      1     64      1      0.8053          0.6804E+06
   5082      1     64      2      0.7400          0.6804E+06
   5083      1     64      3      0.6788          0.6804E+06
   5084      1     64      4      0.6036          0.6804E+06
   5085      1     64      5      0.5239          0.6804E+06
   5086      1     64      6      0.4526          0.6804E+06
   5087      1     64      7      0.3795          0.6804E+06
   5088      1     64      8      0.3251          0.6804E+06
   5089      1     64      9      0.2936          0.6804E+06
   5090      1     64     10      0.2744          0.6804E+06
   5091      1     64     11      0.2630          0.6804E+06
   5092      1     64     12      0.2510          0.6804E+06
   5093      1     64     13      0.2376          0.6804E+06
   5094      1     64     14      0.2234          0.6804E+06
   5095      1     64     15      0.2076          0.6804E+06
   5096      1     64     16      0.1967          0.6804E+06
   5097      1     64     17      0.1875          0.6804E+06
   5098      1     64     18      0.1814          0.6804E+06
   5099      1     64     19      0.1768          0.6804E+06
   5100      1     64     20      0.1680          0.6804E+06
   5101      1     64     21      0.1524          0.6804E+06
   5102      1     64     22      0.1333          0.6804E+06
   5103      1     64     23      0.1095          0.6804E+06
   5104      1     64     24      0.9132E-01      0.6804E+06
   5105      1     64     25      0.7684E-01      0.6804E+06
   5106      1     64     26      0.7106E-01      0.6804E+06
   5107      1     64     27      0.7188E-01      0.6804E+06
   5108      1     64     28      0.7394E-01      0.6804E+06
   5109      1     64     29      0.7391E-01      0.6804E+06
   5110      1     64     30      0.6714E-01      0.6804E+06
   5111      1     64     62       0.000          0.6804E+06
   5112      1     64     63       0.000          0.6804E+06
   5113      1     64     64       0.000          0.6804E+06
   5114      1     64     65       0.000          0.6804E+06
   5115      1     64     66       0.000          0.6804E+06
   5116      1     64     67       0.000          0.6804E+06
   5117      1     64     68       0.000          0.6804E+06
   5118      1     64     69       0.000          0.6804E+06
   5119      1     64     70       0.000          0.6804E+06
   5120      1     64     71       0.000          0.6804E+06
   5121      1     64     72       0.000          0.6804E+06
   5122      1     64     73       0.000          0.6804E+06
   5123      1     64     74       0.000          0.6804E+06
   5124      1     64     75       0.000          0.6804E+06
   5125      1     64     76      0.2230E-01      0.6804E+06
   5126      1     64     77      0.4549E-01      0.6804E+06
   5127      1     64     78      0.7268E-01      0.6804E+06
   5128      1     64     79      0.9491E-01      0.6804E+06
   5129      1     64     80      0.1114          0.6804E+06
   5130      1     64     81      0.1289          0.6804E+06
   5131      1     64     82      0.1457          0.6804E+06
   5132      1     64     83      0.1592          0.6804E+06
   5133      1     64     84      0.1739          0.6804E+06
   5134      1     64     85      0.1874          0.6804E+06
   5135      1     64     86      0.2027          0.6804E+06
   5136      1     64     87      0.2166          0.6804E+06
   5137      1     64     88      0.2251          0.6804E+06
   5138      1     64     89      0.2313          0.6804E+06
   5139      1     64     90      0.2360          0.6804E+06
   5140      1     64     91      0.2402          0.6804E+06
   5141      1     64     92      0.2454          0.6804E+06
   5142      1     64     93      0.2502          0.6804E+06
   5143      1     64     94      0.2557          0.6804E+06
   5144      1     64     95      0.2617          0.6804E+06
   5145      1     64     96      0.2668          0.6804E+06
   5146      1     64     97      0.2718          0.6804E+06
   5147      1     64     98      0.2755          0.6804E+06
   5148      1     64     99      0.2779          0.6804E+06
   5149      1     64    100      0.2789          0.6804E+06
   5150      1     65      1      0.8433          0.6804E+06
   5151      1     65      2      0.7804          0.6804E+06
   5152      1     65      3      0.7192          0.6804E+06
   5153      1     65      4      0.6415          0.6804E+06
   5154      1     65      5      0.5560          0.6804E+06
   5155      1     65      6      0.4755          0.6804E+06
   5156      1     65      7      0.3853          0.6804E+06
   5157      1     65      8      0.3184          0.6804E+06
   5158      1     65      9      0.2833          0.6804E+06
   5159      1     65     10      0.2655          0.6804E+06
   5160      1     65     11      0.2530          0.6804E+06
   5161      1     65     12      0.2388          0.6804E+06
   5162      1     65     13      0.2247          0.6804E+06
   5163      1     65     14      0.2122          0.6804E+06
   5164      1     65     15      0.1992          0.6804E+06
   5165      1     65     16      0.1906          0.6804E+06
   5166      1     65     17      0.1839          0.6804E+06
   5167      1     65     18      0.1807          0.6804E+06
   5168      1     65     19      0.1793          0.6804E+06
   5169      1     65     20      0.1725          0.6804E+06
   5170      1     65     21      0.1564          0.6804E+06
   5171      1     65     22      0.1344          0.6804E+06
   5172      1     65     23      0.1070          0.6804E+06
   5173      1     65     24      0.8469E-01      0.6804E+06
   5174      1     65     25      0.6673E-01      0.6804E+06
   5175      1     65     26      0.6113E-01      0.6804E+06
   5176      1     65     27      0.6565E-01      0.6804E+06
   5177      1     65     28      0.7254E-01      0.6804E+06
   5178      1     65     29      0.7758E-01      0.6804E+06
   5179      1     65     30      0.7604E-01      0.6804E+06
   5180      1     65     62       0.000          0.6804E+06
   5181      1     65     63       0.000          0.6804E+06
   5182      1     65     64       0.000          0.6804E+06
   5183      1     65     65       0.000          0.6804E+06
   5184      1     65     66       0.000          0.6804E+06
   5185      1     65     67       0.000          0.6804E+06
   5186      1     65     68       0.000          0.6804E+06
   5187      1     65     69       0.000          0.6804E+06
   5188      1     65     70       0.000          0.6804E+06
   5189      1     65     71       0.000          0.6804E+06
   5190      1     65     72       0.000          0.6804E+06
   5191      1     65     73       0.000          0.6804E+06
   5192      1     65     74       0.000          0.6804E+06
   5193      1     65     75      0.1949E-01      0.6804E+06
   5194      1     65     76      0.7660E-01      0.6804E+06
   5195      1     65     77      0.9054E-01      0.6804E+06
   5196      1     65     78      0.1097          0.6804E+06
   5197      1     65     79      0.1260          0.6804E+06
   5198      1     65     80      0.1387          0.6804E+06
   5199      1     65     81      0.1538          0.6804E+06
   5200      1     65     82      0.1687          0.6804E+06
   5201      1     65     83      0.1797          0.6804E+06
   5202      1     65     84      0.1924          0.6804E+06
   5203      1     65     85      0.2052          0.6804E+06
   5204      1     65     86      0.2200          0.6804E+06
   5205      1     65     87      0.2335          0.6804E+06
   5206      1     65     88      0.2415          0.6804E+06
   5207      1     65     89      0.2465          0.6804E+06
   5208      1     65     90      0.2506          0.6804E+06
   5209      1     65     91      0.2542          0.6804E+06
   5210      1     65     92      0.2589          0.6804E+06
   5211      1     65     93      0.2634          0.6804E+06
   5212      1     65     94      0.2688          0.6804E+06
   5213      1     65     95      0.2745          0.6804E+06
   5214      1     65     96      0.2797          0.6804E+06
   5215      1     65     97      0.2849          0.6804E+06
   5216      1     65     98      0.2884          0.6804E+06
   5217      1     65     99      0.2909          0.6804E+06
   5218      1     65    100      0.2919          0.6804E+06
   5219      1     66      1      0.8893          0.6804E+06
   5220      1     66      2      0.8288          0.6804E+06
   5221      1     66      3      0.7675          0.6804E+06
   5222      1     66      4      0.6887          0.6804E+06
   5223      1     66      5      0.6005          0.6804E+06
   5224      1     66      6      0.5151          0.6804E+06
   5225      1     66      7      0.4139          0.6804E+06
   5226      1     66      8      0.3369          0.6804E+06
   5227      1     66      9      0.2959          0.6804E+06
   5228      1     66     10      0.2720          0.6804E+06
   5229      1     66     11      0.2530          0.6804E+06
   5230      1     66     12      0.2326          0.6804E+06
   5231      1     66     13      0.2150          0.6804E+06
   5232      1     66     14      0.2025          0.6804E+06
   5233      1     66     15      0.1906          0.6804E+06
   5234      1     66     16      0.1828          0.6804E+06
   5235      1     66     17      0.1773          0.6804E+06
   5236      1     66     18      0.1770          0.6804E+06
   5237      1     66     19      0.1794          0.6804E+06
   5238      1     66     20      0.1761          0.6804E+06
   5239      1     66     21      0.1606          0.6804E+06
   5240      1     66     22      0.1362          0.6804E+06
   5241      1     66     23      0.1063          0.6804E+06
   5242      1     66     24      0.8042E-01      0.6804E+06
   5243      1     66     25      0.5877E-01      0.6804E+06
   5244      1     66     26      0.5290E-01      0.6804E+06
   5245      1     66     27      0.6109E-01      0.6804E+06
   5246      1     66     28      0.7134E-01      0.6804E+06
   5247      1     66     29      0.8049E-01      0.6804E+06
   5248      1     66     30      0.8453E-01      0.6804E+06
   5249      1     66     64       0.000          0.6804E+06
   5250      1     66     65       0.000          0.6804E+06
   5251      1     66     66       0.000          0.6804E+06
   5252      1     66     67       0.000          0.6804E+06
   5253      1     66     68       0.000          0.6804E+06
   5254      1     66     69       0.000          0.6804E+06
   5255      1     66     70       0.000          0.6804E+06
   5256      1     66     71       0.000          0.6804E+06
   5257      1     66     72       0.000          0.6804E+06
   5258      1     66     73       0.000          0.6804E+06
   5259      1     66     74      0.1345E-01      0.6804E+06
   5260      1     66     75      0.6491E-01      0.6804E+06
   5261      1     66     76      0.1138          0.6804E+06
   5262      1     66     77      0.1313          0.6804E+06
   5263      1     66     78      0.1469          0.6804E+06
   5264      1     66     79      0.1595          0.6804E+06
   5265      1     66     80      0.1696          0.6804E+06
   5266      1     66     81      0.1816          0.6804E+06
   5267      1     66     82      0.1930          0.6804E+06
   5268      1     66     83      0.2018          0.6804E+06
   5269      1     66     84      0.2123          0.6804E+06
   5270      1     66     85      0.2237          0.6804E+06
   5271      1     66     86      0.2367          0.6804E+06
   5272      1     66     87      0.2476          0.6804E+06
   5273      1     66     88      0.2547          0.6804E+06
   5274      1     66     89      0.2601          0.6804E+06
   5275      1     66     90      0.2645          0.6804E+06
   5276      1     66     91      0.2680          0.6804E+06
   5277      1     66     92      0.2724          0.6804E+06
   5278      1     66     93      0.2766          0.6804E+06
   5279      1     66     94      0.2818          0.6804E+06
   5280      1     66     95      0.2876          0.6804E+06
   5281      1     66     96      0.2929          0.6804E+06
   5282      1     66     97      0.2984          0.6804E+06
   5283      1     66     98      0.3019          0.6804E+06
   5284      1     66     99      0.3039          0.6804E+06
   5285      1     66    100      0.3045          0.6804E+06
   5286      1     67      1      0.9378          0.6804E+06
   5287      1     67      2      0.8798          0.6804E+06
   5288      1     67      3      0.8201          0.6804E+06
   5289      1     67      4      0.7431          0.6804E+06
   5290      1     67      5      0.6568          0.6804E+06
   5291      1     67      6      0.5729          0.6804E+06
   5292      1     67      7      0.4731          0.6804E+06
   5293      1     67      8      0.3918          0.6804E+06
   5294      1     67      9      0.3410          0.6804E+06
   5295      1     67     10      0.2998          0.6804E+06
   5296      1     67     11      0.2668          0.6804E+06
   5297      1     67     12      0.2348          0.6804E+06
   5298      1     67     13      0.2115          0.6804E+06
   5299      1     67     14      0.1983          0.6804E+06
   5300      1     67     15      0.1866          0.6804E+06
   5301      1     67     16      0.1779          0.6804E+06
   5302      1     67     17      0.1716          0.6804E+06
   5303      1     67     18      0.1729          0.6804E+06
   5304      1     67     19      0.1760          0.6804E+06
   5305      1     67     20      0.1729          0.6804E+06
   5306      1     67     21      0.1588          0.6804E+06
   5307      1     67     22      0.1373          0.6804E+06
   5308      1     67     23      0.1092          0.6804E+06
   5309      1     67     24      0.8535E-01      0.6804E+06
   5310      1     67     25      0.6494E-01      0.6804E+06
   5311      1     67     26      0.5779E-01      0.6804E+06
   5312      1     67     27      0.6287E-01      0.6804E+06
   5313      1     67     28      0.7176E-01      0.6804E+06
   5314      1     67     29      0.8205E-01      0.6804E+06
   5315      1     67     30      0.8959E-01      0.6804E+06
   5316      1     67     31      0.8928E-01      0.6804E+06
   5317      1     67     66       0.000          0.6804E+06
   5318      1     67     67       0.000          0.6804E+06
   5319      1     67     68       0.000          0.6804E+06
   5320      1     67     69       0.000          0.6804E+06
   5321      1     67     70       0.000          0.6804E+06
   5322      1     67     71       0.000          0.6804E+06
   5323      1     67     72       0.000          0.6804E+06
   5324      1     67     73      0.1480E-01      0.6804E+06
   5325      1     67     74      0.6347E-01      0.6804E+06
   5326      1     67     75      0.1037          0.6804E+06
   5327      1     67     76      0.1422          0.6804E+06
   5328      1     67     77      0.1633          0.6804E+06
   5329      1     67     78      0.1782          0.6804E+06
   5330      1     67     79      0.1892          0.6804E+06
   5331      1     67     80      0.1978          0.6804E+06
   5332      1     67     81      0.2072          0.6804E+06
   5333      1     67     82      0.2164          0.6804E+06
   5334      1     67     83      0.2231          0.6804E+06
   5335      1     67     84      0.2308          0.6804E+06
   5336      1     67     85      0.2400          0.6804E+06
   5337      1     67     86      0.2510          0.6804E+06
   5338      1     67     87      0.2601          0.6804E+06
   5339      1     67     88      0.2662          0.6804E+06
   5340      1     67     89      0.2714          0.6804E+06
   5341      1     67     90      0.2756          0.6804E+06
   5342      1     67     91      0.2790          0.6804E+06
   5343      1     67     92      0.2833          0.6804E+06
   5344      1     67     93      0.2874          0.6804E+06
   5345      1     67     94      0.2925          0.6804E+06
   5346      1     67     95      0.2982          0.6804E+06
   5347      1     67     96      0.3037          0.6804E+06
   5348      1     67     97      0.3095          0.6804E+06
   5349      1     67     98      0.3132          0.6804E+06
   5350      1     67     99      0.3144          0.6804E+06
   5351      1     67    100      0.3145          0.6804E+06
   5352      1     68      1      0.9804          0.6804E+06
   5353      1     68      2      0.9247          0.6804E+06
   5354      1     68      3      0.8686          0.6804E+06
   5355      1     68      4      0.7966          0.6804E+06
   5356      1     68      5      0.7156          0.6804E+06
   5357      1     68      6      0.6375          0.6804E+06
   5358      1     68      7      0.5474          0.6804E+06
   5359      1     68      8      0.4666          0.6804E+06
   5360      1     68      9      0.4044          0.6804E+06
   5361      1     68     10      0.3407          0.6804E+06
   5362      1     68     11      0.2907          0.6804E+06
   5363      1     68     12      0.2450          0.6804E+06
   5364      1     68     13      0.2151          0.6804E+06
   5365      1     68     14      0.2005          0.6804E+06
   5366      1     68     15      0.1885          0.6804E+06
   5367      1     68     16      0.1797          0.6804E+06
   5368      1     68     17      0.1732          0.6804E+06
   5369      1     68     18      0.1745          0.6804E+06
   5370      1     68     19      0.1764          0.6804E+06
   5371      1     68     20      0.1722          0.6804E+06
   5372      1     68     21      0.1587          0.6804E+06
   5373      1     68     22      0.1395          0.6804E+06
   5374      1     68     23      0.1139          0.6804E+06
   5375      1     68     24      0.9218E-01      0.6804E+06
   5376      1     68     25      0.7264E-01      0.6804E+06
   5377      1     68     26      0.6355E-01      0.6804E+06
   5378      1     68     27      0.6583E-01      0.6804E+06
   5379      1     68     28      0.7308E-01      0.6804E+06
   5380      1     68     29      0.8215E-01      0.6804E+06
   5381      1     68     30      0.8946E-01      0.6804E+06
   5382      1     68     68       0.000          0.6804E+06
   5383      1     68     69       0.000          0.6804E+06
   5384      1     68     70       0.000          0.6804E+06
   5385      1     68     71       0.000          0.6804E+06
   5386      1     68     72      0.2050E-01      0.6804E+06
   5387      1     68     73      0.5891E-01      0.6804E+06
   5388      1     68     74      0.1021          0.6804E+06
   5389      1     68     75      0.1364          0.6804E+06
   5390      1     68     76      0.1685          0.6804E+06
   5391      1     68     77      0.1877          0.6804E+06
   5392      1     68     78      0.2019          0.6804E+06
   5393      1     68     79      0.2123          0.6804E+06
   5394      1     68     80      0.2198          0.6804E+06
   5395      1     68     81      0.2275          0.6804E+06
   5396      1     68     82      0.2350          0.6804E+06
   5397      1     68     83      0.2402          0.6804E+06
   5398      1     68     84      0.2459          0.6804E+06
   5399      1     68     85      0.2531          0.6804E+06
   5400      1     68     86      0.2623          0.6804E+06
   5401      1     68     87      0.2701          0.6804E+06
   5402      1     68     88      0.2754          0.6804E+06
   5403      1     68     89      0.2797          0.6804E+06
   5404      1     68     90      0.2836          0.6804E+06
   5405      1     68     91      0.2869          0.6804E+06
   5406      1     68     92      0.2909          0.6804E+06
   5407      1     68     93      0.2948          0.6804E+06
   5408      1     68     94      0.2997          0.6804E+06
   5409      1     68     95      0.3052          0.6804E+06
   5410      1     68     96      0.3103          0.6804E+06
   5411      1     68     97      0.3156          0.6804E+06
   5412      1     68     98      0.3190          0.6804E+06
   5413      1     68     99      0.3204          0.6804E+06
   5414      1     68    100      0.3206          0.6804E+06
   5415      1     69      1       1.019          0.6804E+06
   5416      1     69      2      0.9688          0.6804E+06
   5417      1     69      3      0.9209          0.6804E+06
   5418      1     69      4      0.8591          0.6804E+06
   5419      1     69      5      0.7854          0.6804E+06
   5420      1     69      6      0.7143          0.6804E+06
   5421      1     69      7      0.6333          0.6804E+06
   5422      1     69      8      0.5542          0.6804E+06
   5423      1     69      9      0.4827          0.6804E+06
   5424      1     69     10      0.3975          0.6804E+06
   5425      1     69     11      0.3301          0.6804E+06
   5426      1     69     12      0.2690          0.6804E+06
   5427      1     69     13      0.2299          0.6804E+06
   5428      1     69     14      0.2118          0.6804E+06
   5429      1     69     15      0.1989          0.6804E+06
   5430      1     69     16      0.1910          0.6804E+06
   5431      1     69     17      0.1856          0.6804E+06
   5432      1     69     18      0.1847          0.6804E+06
   5433      1     69     19      0.1841          0.6804E+06
   5434      1     69     20      0.1779          0.6804E+06
   5435      1     69     21      0.1637          0.6804E+06
   5436      1     69     22      0.1446          0.6804E+06
   5437      1     69     23      0.1205          0.6804E+06
   5438      1     69     24      0.1003          0.6804E+06
   5439      1     69     25      0.8040E-01      0.6804E+06
   5440      1     69     26      0.6800E-01      0.6804E+06
   5441      1     69     27      0.6869E-01      0.6804E+06
   5442      1     69     28      0.7510E-01      0.6804E+06
   5443      1     69     29      0.8276E-01      0.6804E+06
   5444      1     69     30      0.8854E-01      0.6804E+06
   5445      1     69     70      0.2206E-01      0.6804E+06
   5446      1     69     71      0.4476E-01      0.6804E+06
   5447      1     69     72      0.7024E-01      0.6804E+06
   5448      1     69     73      0.1049          0.6804E+06
   5449      1     69     74      0.1407          0.6804E+06
   5450      1     69     75      0.1691          0.6804E+06
   5451      1     69     76      0.1961          0.6804E+06
   5452      1     69     77      0.2139          0.6804E+06
   5453      1     69     78      0.2266          0.6804E+06
   5454      1     69     79      0.2356          0.6804E+06
   5455      1     69     80      0.2419          0.6804E+06
   5456      1     69     81      0.2478          0.6804E+06
   5457      1     69     82      0.2529          0.6804E+06
   5458      1     69     83      0.2568          0.6804E+06
   5459      1     69     84      0.2613          0.6804E+06
   5460      1     69     85      0.2668          0.6804E+06
   5461      1     69     86      0.2738          0.6804E+06
   5462      1     69     87      0.2799          0.6804E+06
   5463      1     69     88      0.2842          0.6804E+06
   5464      1     69     89      0.2875          0.6804E+06
   5465      1     69     90      0.2910          0.6804E+06
   5466      1     69     91      0.2939          0.6804E+06
   5467      1     69     92      0.2977          0.6804E+06
   5468      1     69     93      0.3013          0.6804E+06
   5469      1     69     94      0.3057          0.6804E+06
   5470      1     69     95      0.3107          0.6804E+06
   5471      1     69     96      0.3151          0.6804E+06
   5472      1     69     97      0.3197          0.6804E+06
   5473      1     69     98      0.3226          0.6804E+06
   5474      1     69     99      0.3242          0.6804E+06
   5475      1     69    100      0.3248          0.6804E+06
   5476      1     70      1       1.039          0.6804E+06
   5477      1     70      2      0.9961          0.6804E+06
   5478      1     70      3      0.9560          0.6804E+06
   5479      1     70      4      0.9038          0.6804E+06
   5480      1     70      5      0.8388          0.6804E+06
   5481      1     70      6      0.7754          0.6804E+06
   5482      1     70      7      0.7007          0.6804E+06
   5483      1     70      8      0.6222          0.6804E+06
   5484      1     70      9      0.5448          0.6804E+06
   5485      1     70     10      0.4475          0.6804E+06
   5486      1     70     11      0.3687          0.6804E+06
   5487      1     70     12      0.2960          0.6804E+06
   5488      1     70     13      0.2494          0.6804E+06
   5489      1     70     14      0.2283          0.6804E+06
   5490      1     70     15      0.2144          0.6804E+06
   5491      1     70     16      0.2064          0.6804E+06
   5492      1     70     17      0.2007          0.6804E+06
   5493      1     70     18      0.1982          0.6804E+06
   5494      1     70     19      0.1961          0.6804E+06
   5495      1     70     20      0.1884          0.6804E+06
   5496      1     70     21      0.1725          0.6804E+06
   5497      1     70     22      0.1517          0.6804E+06
   5498      1     70     23      0.1269          0.6804E+06
   5499      1     70     24      0.1067          0.6804E+06
   5500      1     70     25      0.8626E-01      0.6804E+06
   5501      1     70     26      0.7133E-01      0.6804E+06
   5502      1     70     27      0.7160E-01      0.6804E+06
   5503      1     70     28      0.7754E-01      0.6804E+06
   5504      1     70     29      0.8380E-01      0.6804E+06
   5505      1     70     30      0.8768E-01      0.6804E+06
   5506      1     70     72      0.1065          0.6804E+06
   5507      1     70     73      0.1390          0.6804E+06
   5508      1     70     74      0.1710          0.6804E+06
   5509      1     70     75      0.1963          0.6804E+06
   5510      1     70     76      0.2208          0.6804E+06
   5511      1     70     77      0.2365          0.6804E+06
   5512      1     70     78      0.2472          0.6804E+06
   5513      1     70     79      0.2544          0.6804E+06
   5514      1     70     80      0.2592          0.6804E+06
   5515      1     70     81      0.2632          0.6804E+06
   5516      1     70     82      0.2654          0.6804E+06
   5517      1     70     83      0.2680          0.6804E+06
   5518      1     70     84      0.2721          0.6804E+06
   5519      1     70     85      0.2763          0.6804E+06
   5520      1     70     86      0.2816          0.6804E+06
   5521      1     70     87      0.2863          0.6804E+06
   5522      1     70     88      0.2897          0.6804E+06
   5523      1     70     89      0.2926          0.6804E+06
   5524      1     70     90      0.2956          0.6804E+06
   5525      1     70     91      0.2985          0.6804E+06
   5526      1     70     92      0.3021          0.6804E+06
   5527      1     70     93      0.3053          0.6804E+06
   5528      1     70     94      0.3094          0.6804E+06
   5529      1     70     95      0.3138          0.6804E+06
   5530      1     70     96      0.3177          0.6804E+06
   5531      1     70     97      0.3216          0.6804E+06
   5532      1     70     98      0.3241          0.6804E+06
   5533      1     70     99      0.3260          0.6804E+06
   5534      1     70    100      0.3269          0.6804E+06
   5535      1     71      1       1.044          0.6804E+06
   5536      1     71      2       1.012          0.6804E+06
   5537      1     71      3      0.9810          0.6804E+06
   5538      1     71      4      0.9393          0.6804E+06
   5539      1     71      5      0.8874          0.6804E+06
   5540      1     71      6      0.8357          0.6804E+06
   5541      1     71      7      0.7698          0.6804E+06
   5542      1     71      8      0.6933          0.6804E+06
   5543      1     71      9      0.6115          0.6804E+06
   5544      1     71     10      0.5047          0.6804E+06
   5545      1     71     11      0.4131          0.6804E+06
   5546      1     71     12      0.3265          0.6804E+06
   5547      1     71     13      0.2751          0.6804E+06
   5548      1     71     14      0.2534          0.6804E+06
   5549      1     71     15      0.2384          0.6804E+06
   5550      1     71     16      0.2288          0.6804E+06
   5551      1     71     17      0.2208          0.6804E+06
   5552      1     71     18      0.2147          0.6804E+06
   5553      1     71     19      0.2103          0.6804E+06
   5554      1     71     20      0.2004          0.6804E+06
   5555      1     71     21      0.1819          0.6804E+06
   5556      1     71     22      0.1587          0.6804E+06
   5557      1     71     23      0.1336          0.6804E+06
   5558      1     71     24      0.1141          0.6804E+06
   5559      1     71     25      0.9519E-01      0.6804E+06
   5560      1     71     26      0.8224E-01      0.6804E+06
   5561      1     71     27      0.7984E-01      0.6804E+06
   5562      1     71     28      0.8187E-01      0.6804E+06
   5563      1     71     29      0.8450E-01      0.6804E+06
   5564      1     71     30      0.8545E-01      0.6804E+06
   5565      1     71     74      0.2032          0.6804E+06
   5566      1     71     75      0.2267          0.6804E+06
   5567      1     71     76      0.2487          0.6804E+06
   5568      1     71     77      0.2610          0.6804E+06
   5569      1     71     78      0.2689          0.6804E+06
   5570      1     71     79      0.2737          0.6804E+06
   5571      1     71     80      0.2767          0.6804E+06
   5572      1     71     81      0.2788          0.6804E+06
   5573      1     71     82      0.2788          0.6804E+06
   5574      1     71     83      0.2797          0.6804E+06
   5575      1     71     84      0.2822          0.6804E+06
   5576      1     71     85      0.2846          0.6804E+06
   5577      1     71     86      0.2880          0.6804E+06
   5578      1     71     87      0.2912          0.6804E+06
   5579      1     71     88      0.2935          0.6804E+06
   5580      1     71     89      0.2961          0.6804E+06
   5581      1     71     90      0.2989          0.6804E+06
   5582      1     71     91      0.3017          0.6804E+06
   5583      1     71     92      0.3053          0.6804E+06
   5584      1     71     93      0.3083          0.6804E+06
   5585      1     71     94      0.3120          0.6804E+06
   5586      1     71     95      0.3160          0.6804E+06
   5587      1     71     96      0.3194          0.6804E+06
   5588      1     71     97      0.3226          0.6804E+06
   5589      1     71     98      0.3249          0.6804E+06
   5590      1     71     99      0.3268          0.6804E+06
   5591      1     71    100      0.3278          0.6804E+06
   5592      1     72      1       1.041          0.6804E+06
   5593      1     72      2       1.017          0.6804E+06
   5594      1     72      3      0.9919          0.6804E+06
   5595      1     72      4      0.9595          0.6804E+06
   5596      1     72      5      0.9222          0.6804E+06
   5597      1     72      6      0.8850          0.6804E+06
   5598      1     72      7      0.8329          0.6804E+06
   5599      1     72      8      0.7633          0.6804E+06
   5600      1     72      9      0.6782          0.6804E+06
   5601      1     72     10      0.5649          0.6804E+06
   5602      1     72     11      0.4641          0.6804E+06
   5603      1     72     12      0.3678          0.6804E+06
   5604      1     72     13      0.3126          0.6804E+06
   5605      1     72     14      0.2887          0.6804E+06
   5606      1     72     15      0.2699          0.6804E+06
   5607      1     72     16      0.2557          0.6804E+06
   5608      1     72     17      0.2422          0.6804E+06
   5609      1     72     18      0.2301          0.6804E+06
   5610      1     72     19      0.2203          0.6804E+06
   5611      1     72     20      0.2058          0.6804E+06
   5612      1     72     21      0.1849          0.6804E+06
   5613      1     72     22      0.1623          0.6804E+06
   5614      1     72     23      0.1385          0.6804E+06
   5615      1     72     24      0.1200          0.6804E+06
   5616      1     72     25      0.1024          0.6804E+06
   5617      1     72     26      0.9081E-01      0.6804E+06
   5618      1     72     27      0.8636E-01      0.6804E+06
   5619      1     72     28      0.8408E-01      0.6804E+06
   5620      1     72     29      0.8199E-01      0.6804E+06
   5621      1     72     30      0.7946E-01      0.6804E+06
   5622      1     72     31      0.8053E-01      0.6804E+06
   5623      1     72     76      0.2759          0.6804E+06
   5624      1     72     77      0.2839          0.6804E+06
   5625      1     72     78      0.2884          0.6804E+06
   5626      1     72     79      0.2909          0.6804E+06
   5627      1     72     80      0.2920          0.6804E+06
   5628      1     72     81      0.2922          0.6804E+06
   5629      1     72     82      0.2904          0.6804E+06
   5630      1     72     83      0.2896          0.6804E+06
   5631      1     72     84      0.2901          0.6804E+06
   5632      1     72     85      0.2908          0.6804E+06
   5633      1     72     86      0.2924          0.6804E+06
   5634      1     72     87      0.2942          0.6804E+06
   5635      1     72     88      0.2959          0.6804E+06
   5636      1     72     89      0.2982          0.6804E+06
   5637      1     72     90      0.3009          0.6804E+06
   5638      1     72     91      0.3037          0.6804E+06
   5639      1     72     92      0.3072          0.6804E+06
   5640      1     72     93      0.3101          0.6804E+06
   5641      1     72     94      0.3135          0.6804E+06
   5642      1     72     95      0.3171          0.6804E+06
   5643      1     72     96      0.3201          0.6804E+06
   5644      1     72     97      0.3230          0.6804E+06
   5645      1     72     98      0.3250          0.6804E+06
   5646      1     72     99      0.3267          0.6804E+06
   5647      1     72    100      0.3278          0.6804E+06
   5648      1     73      1       1.035          0.6804E+06
   5649      1     73      2       1.015          0.6804E+06
   5650      1     73      3      0.9945          0.6804E+06
   5651      1     73      4      0.9694          0.6804E+06
   5652      1     73      5      0.9434          0.6804E+06
   5653      1     73      6      0.9195          0.6804E+06
   5654      1     73      7      0.8851          0.6804E+06
   5655      1     73      8      0.8276          0.6804E+06
   5656      1     73      9      0.7387          0.6804E+06
   5657      1     73     10      0.6230          0.6804E+06
   5658      1     73     11      0.5239          0.6804E+06
   5659      1     73     12      0.4279          0.6804E+06
   5660      1     73     13      0.3649          0.6804E+06
   5661      1     73     14      0.3318          0.6804E+06
   5662      1     73     15      0.3039          0.6804E+06
   5663      1     73     16      0.2827          0.6804E+06
   5664      1     73     17      0.2617          0.6804E+06
   5665      1     73     18      0.2429          0.6804E+06
   5666      1     73     19      0.2268          0.6804E+06
   5667      1     73     20      0.2069          0.6804E+06
   5668      1     73     21      0.1843          0.6804E+06
   5669      1     73     22      0.1636          0.6804E+06
   5670      1     73     23      0.1416          0.6804E+06
   5671      1     73     24      0.1243          0.6804E+06
   5672      1     73     25      0.1073          0.6804E+06
   5673      1     73     26      0.9514E-01      0.6804E+06
   5674      1     73     27      0.8796E-01      0.6804E+06
   5675      1     73     28      0.8118E-01      0.6804E+06
   5676      1     73     29      0.7485E-01      0.6804E+06
   5677      1     73     30      0.6983E-01      0.6804E+06
   5678      1     73     31      0.6996E-01      0.6804E+06
   5679      1     73     32      0.7190E-01      0.6804E+06
   5680      1     73     78      0.3037          0.6804E+06
   5681      1     73     79      0.3039          0.6804E+06
   5682      1     73     80      0.3034          0.6804E+06
   5683      1     73     81      0.3019          0.6804E+06
   5684      1     73     82      0.2989          0.6804E+06
   5685      1     73     83      0.2967          0.6804E+06
   5686      1     73     84      0.2956          0.6804E+06
   5687      1     73     85      0.2948          0.6804E+06
   5688      1     73     86      0.2950          0.6804E+06
   5689      1     73     87      0.2958          0.6804E+06
   5690      1     73     88      0.2970          0.6804E+06
   5691      1     73     89      0.2991          0.6804E+06
   5692      1     73     90      0.3017          0.6804E+06
   5693      1     73     91      0.3045          0.6804E+06
   5694      1     73     92      0.3080          0.6804E+06
   5695      1     73     93      0.3108          0.6804E+06
   5696      1     73     94      0.3140          0.6804E+06
   5697      1     73     95      0.3174          0.6804E+06
   5698      1     73     96      0.3201          0.6804E+06
   5699      1     73     97      0.3227          0.6804E+06
   5700      1     73     98      0.3246          0.6804E+06
   5701      1     73     99      0.3262          0.6804E+06
   5702      1     73    100      0.3273          0.6804E+06
   5703      1     74      1       1.026          0.6804E+06
   5704      1     74      2       1.008          0.6804E+06
   5705      1     74      3      0.9908          0.6804E+06
   5706      1     74      4      0.9715          0.6804E+06
   5707      1     74      5      0.9550          0.6804E+06
   5708      1     74      6      0.9410          0.6804E+06
   5709      1     74      7      0.9176          0.6804E+06
   5710      1     74      8      0.8699          0.6804E+06
   5711      1     74      9      0.7894          0.6804E+06
   5712      1     74     10      0.6835          0.6804E+06
   5713      1     74     11      0.5932          0.6804E+06
   5714      1     74     12      0.5029          0.6804E+06
   5715      1     74     13      0.4336          0.6804E+06
   5716      1     74     14      0.3892          0.6804E+06
   5717      1     74     15      0.3487          0.6804E+06
   5718      1     74     16      0.3174          0.6804E+06
   5719      1     74     17      0.2861          0.6804E+06
   5720      1     74     18      0.2591          0.6804E+06
   5721      1     74     19      0.2364          0.6804E+06
   5722      1     74     20      0.2106          0.6804E+06
   5723      1     74     21      0.1852          0.6804E+06
   5724      1     74     22      0.1656          0.6804E+06
   5725      1     74     23      0.1452          0.6804E+06
   5726      1     74     24      0.1289          0.6804E+06
   5727      1     74     25      0.1121          0.6804E+06
   5728      1     74     26      0.9792E-01      0.6804E+06
   5729      1     74     27      0.8700E-01      0.6804E+06
   5730      1     74     28      0.7528E-01      0.6804E+06
   5731      1     74     29      0.6438E-01      0.6804E+06
   5732      1     74     30      0.5653E-01      0.6804E+06
   5733      1     74     31      0.5697E-01      0.6804E+06
   5734      1     74     32      0.6116E-01      0.6804E+06
   5735      1     74     33      0.6568E-01      0.6804E+06
   5736      1     74     80      0.3134          0.6804E+06
   5737      1     74     81      0.3107          0.6804E+06
   5738      1     74     82      0.3066          0.6804E+06
   5739      1     74     83      0.3032          0.6804E+06
   5740      1     74     84      0.3003          0.6804E+06
   5741      1     74     85      0.2981          0.6804E+06
   5742      1     74     86      0.2966          0.6804E+06
   5743      1     74     87      0.2962          0.6804E+06
   5744      1     74     88      0.2971          0.6804E+06
   5745      1     74     89      0.2991          0.6804E+06
   5746      1     74     90      0.3018          0.6804E+06
   5747      1     74     91      0.3047          0.6804E+06
   5748      1     74     92      0.3082          0.6804E+06
   5749      1     74     93      0.3111          0.6804E+06
   5750      1     74     94      0.3142          0.6804E+06
   5751      1     74     95      0.3172          0.6804E+06
   5752      1     74     96      0.3197          0.6804E+06
   5753      1     74     97      0.3220          0.6804E+06
   5754      1     74     98      0.3237          0.6804E+06
   5755      1     74     99      0.3252          0.6804E+06
   5756      1     74    100      0.3263          0.6804E+06
   5757      1     75      1       1.016          0.6804E+06
   5758      1     75      2      0.9983          0.6804E+06
   5759      1     75      3      0.9817          0.6804E+06
   5760      1     75      4      0.9645          0.6804E+06
   5761      1     75      5      0.9552          0.6804E+06
   5762      1     75      6      0.9469          0.6804E+06
   5763      1     75      7      0.9281          0.6804E+06
   5764      1     75      8      0.8868          0.6804E+06
   5765      1     75      9      0.8213          0.6804E+06
   5766      1     75     10      0.7319          0.6804E+06
   5767      1     75     11      0.6532          0.6804E+06
   5768      1     75     12      0.5702          0.6804E+06
   5769      1     75     13      0.4986          0.6804E+06
   5770      1     75     14      0.4465          0.6804E+06
   5771      1     75     15      0.3956          0.6804E+06
   5772      1     75     16      0.3550          0.6804E+06
   5773      1     75     17      0.3131          0.6804E+06
   5774      1     75     18      0.2790          0.6804E+06
   5775      1     75     19      0.2512          0.6804E+06
   5776      1     75     20      0.2205          0.6804E+06
   5777      1     75     21      0.1922          0.6804E+06
   5778      1     75     22      0.1718          0.6804E+06
   5779      1     75     23      0.1510          0.6804E+06
   5780      1     75     24      0.1344          0.6804E+06
   5781      1     75     25      0.1171          0.6804E+06
   5782      1     75     26      0.1013          0.6804E+06
   5783      1     75     27      0.8772E-01      0.6804E+06
   5784      1     75     28      0.7226E-01      0.6804E+06
   5785      1     75     29      0.5739E-01      0.6804E+06
   5786      1     75     30      0.4658E-01      0.6804E+06
   5787      1     75     31      0.4732E-01      0.6804E+06
   5788      1     75     32      0.5269E-01      0.6804E+06
   5789      1     75     33      0.5864E-01      0.6804E+06
   5790      1     75     34      0.6090E-01      0.6804E+06
   5791      1     75     35      0.5981E-01      0.6804E+06
   5792      1     75     36      0.5356E-01      0.6804E+06
   5793      1     75     37      0.4033E-01      0.6804E+06
   5794      1     75     38      0.2141E-01      0.6804E+06
   5795      1     75     39     -0.4928E-02      0.6804E+06
   5796      1     75     40     -0.4860E-01      0.6804E+06
   5797      1     75     82      0.3118          0.6804E+06
   5798      1     75     83      0.3075          0.6804E+06
   5799      1     75     84      0.3034          0.6804E+06
   5800      1     75     85      0.3000          0.6804E+06
   5801      1     75     86      0.2970          0.6804E+06
   5802      1     75     87      0.2954          0.6804E+06
   5803      1     75     88      0.2959          0.6804E+06
   5804      1     75     89      0.2979          0.6804E+06
   5805      1     75     90      0.3010          0.6804E+06
   5806      1     75     91      0.3042          0.6804E+06
   5807      1     75     92      0.3080          0.6804E+06
   5808      1     75     93      0.3110          0.6804E+06
   5809      1     75     94      0.3141          0.6804E+06
   5810      1     75     95      0.3169          0.6804E+06
   5811      1     75     96      0.3190          0.6804E+06
   5812      1     75     97      0.3210          0.6804E+06
   5813      1     75     98      0.3225          0.6804E+06
   5814      1     75     99      0.3240          0.6804E+06
   5815      1     75    100      0.3251          0.6804E+06
   5816      1     76      1       1.008          0.6804E+06
   5817      1     76      2      0.9897          0.6804E+06
   5818      1     76      3      0.9721          0.6804E+06
   5819      1     76      4      0.9540          0.6804E+06
   5820      1     76      5      0.9498          0.6804E+06
   5821      1     76      6      0.9446          0.6804E+06
   5822      1     76      7      0.9283          0.6804E+06
   5823      1     76      8      0.8926          0.6804E+06
   5824      1     76      9      0.8398          0.6804E+06
   5825      1     76     10      0.7654          0.6804E+06
   5826      1     76     11      0.6969          0.6804E+06
   5827      1     76     12      0.6210          0.6804E+06
   5828      1     76     13      0.5498          0.6804E+06
   5829      1     76     14      0.4940          0.6804E+06
   5830      1     76     15      0.4369          0.6804E+06
   5831      1     76     16      0.3905          0.6804E+06
   5832      1     76     17      0.3418          0.6804E+06
   5833      1     76     18      0.3015          0.6804E+06
   5834      1     76     19      0.2689          0.6804E+06
   5835      1     76     20      0.2341          0.6804E+06
   5836      1     76     21      0.2034          0.6804E+06
   5837      1     76     22      0.1810          0.6804E+06
   5838      1     76     23      0.1586          0.6804E+06
   5839      1     76     24      0.1410          0.6804E+06
   5840      1     76     25      0.1227          0.6804E+06
   5841      1     76     26      0.1048          0.6804E+06
   5842      1     76     27      0.9022E-01      0.6804E+06
   5843      1     76     28      0.7400E-01      0.6804E+06
   5844      1     76     29      0.5855E-01      0.6804E+06
   5845      1     76     30      0.4888E-01      0.6804E+06
   5846      1     76     31      0.4634E-01      0.6804E+06
   5847      1     76     32      0.4826E-01      0.6804E+06
   5848      1     76     33      0.5256E-01      0.6804E+06
   5849      1     76     34      0.5650E-01      0.6804E+06
   5850      1     76     35      0.5869E-01      0.6804E+06
   5851      1     76     36      0.5778E-01      0.6804E+06
   5852      1     76     37      0.5154E-01      0.6804E+06
   5853      1     76     38      0.4008E-01      0.6804E+06
   5854      1     76     39      0.1864E-01      0.6804E+06
   5855      1     76     40     -0.8048E-02      0.6804E+06
   5856      1     76     41     -0.6197E-01      0.6804E+06
   5857      1     76     42     -0.1574          0.6804E+06
   5858      1     76     43     -0.2362          0.6804E+06
   5859      1     76     44     -0.2399          0.6804E+06
   5860      1     76     45     -0.2224          0.6804E+06
   5861      1     76     46     -0.1938          0.6804E+06
   5862      1     76     47     -0.1576          0.6804E+06
   5863      1     76     48     -0.1292          0.6804E+06
   5864      1     76     49     -0.9142E-01      0.6804E+06
   5865      1     76     50     -0.8323E-01      0.6804E+06
   5866      1     76     51     -0.7015E-01      0.6804E+06
   5867      1     76     52     -0.8705E-01      0.6804E+06
   5868      1     76     53     -0.9422E-01      0.6804E+06
   5869      1     76     54     -0.6810E-01      0.6804E+06
   5870      1     76     55     -0.5578E-01      0.6804E+06
   5871      1     76     83      0.3105          0.6804E+06
   5872      1     76     84      0.3053          0.6804E+06
   5873      1     76     85      0.3009          0.6804E+06
   5874      1     76     86      0.2964          0.6804E+06
   5875      1     76     87      0.2937          0.6804E+06
   5876      1     76     88      0.2939          0.6804E+06
   5877      1     76     89      0.2966          0.6804E+06
   5878      1     76     90      0.3003          0.6804E+06
   5879      1     76     91      0.3038          0.6804E+06
   5880      1     76     92      0.3079          0.6804E+06
   5881      1     76     93      0.3109          0.6804E+06
   5882      1     76     94      0.3140          0.6804E+06
   5883      1     76     95      0.3165          0.6804E+06
   5884      1     76     96      0.3184          0.6804E+06
   5885      1     76     97      0.3200          0.6804E+06
   5886      1     76     98      0.3214          0.6804E+06
   5887      1     76     99      0.3228          0.6804E+06
   5888      1     76    100      0.3241          0.6804E+06
   5889      1     77      1       1.001          0.6804E+06
   5890      1     77      2      0.9839          0.6804E+06
   5891      1     77      3      0.9683          0.6804E+06
   5892      1     77      4      0.9532          0.6804E+06
   5893      1     77      5      0.9484          0.6804E+06
   5894      1     77      6      0.9436          0.6804E+06
   5895      1     77      7      0.9310          0.6804E+06
   5896      1     77      8      0.9031          0.6804E+06
   5897      1     77      9      0.8591          0.6804E+06
   5898      1     77     10      0.7963          0.6804E+06
   5899      1     77     11      0.7374          0.6804E+06
   5900      1     77     12      0.6697          0.6804E+06
   5901      1     77     13      0.6008          0.6804E+06
   5902      1     77     14      0.5437          0.6804E+06
   5903      1     77     15      0.4831          0.6804E+06
   5904      1     77     16      0.4330          0.6804E+06
   5905      1     77     17      0.3796          0.6804E+06
   5906      1     77     18      0.3320          0.6804E+06
   5907      1     77     19      0.2933          0.6804E+06
   5908      1     77     20      0.2531          0.6804E+06
   5909      1     77     21      0.2191          0.6804E+06
   5910      1     77     22      0.1943          0.6804E+06
   5911      1     77     23      0.1700          0.6804E+06
   5912      1     77     24      0.1513          0.6804E+06
   5913      1     77     25      0.1318          0.6804E+06
   5914      1     77     26      0.1117          0.6804E+06
   5915      1     77     27      0.9592E-01      0.6804E+06
   5916      1     77     28      0.7905E-01      0.6804E+06
   5917      1     77     29      0.6318E-01      0.6804E+06
   5918      1     77     30      0.5343E-01      0.6804E+06
   5919      1     77     31      0.4698E-01      0.6804E+06
   5920      1     77     32      0.4501E-01      0.6804E+06
   5921      1     77     33      0.4714E-01      0.6804E+06
   5922      1     77     34      0.5264E-01      0.6804E+06
   5923      1     77     35      0.5666E-01      0.6804E+06
   5924      1     77     36      0.5944E-01      0.6804E+06
   5925      1     77     37      0.5884E-01      0.6804E+06
   5926      1     77     38      0.5307E-01      0.6804E+06
   5927      1     77     39      0.3792E-01      0.6804E+06
   5928      1     77     40      0.1553E-01      0.6804E+06
   5929      1     77     41     -0.1409E-01      0.6804E+06
   5930      1     77     42     -0.6773E-01      0.6804E+06
   5931      1     77     43     -0.1318          0.6804E+06
   5932      1     77     44     -0.2024          0.6804E+06
   5933      1     77     45     -0.2205          0.6804E+06
   5934      1     77     46     -0.1914          0.6804E+06
   5935      1     77     47     -0.1720          0.6804E+06
   5936      1     77     48     -0.1567          0.6804E+06
   5937      1     77     49     -0.1345          0.6804E+06
   5938      1     77     50     -0.1181          0.6804E+06
   5939      1     77     51     -0.1069          0.6804E+06
   5940      1     77     52     -0.1091          0.6804E+06
   5941      1     77     53     -0.1079          0.6804E+06
   5942      1     77     54     -0.9501E-01      0.6804E+06
   5943      1     77     55     -0.1144          0.6804E+06
   5944      1     77     56     -0.9585E-01      0.6804E+06
   5945      1     77     57     -0.3554E-01      0.6804E+06
   5946      1     77     58      0.9135E-02      0.6804E+06
   5947      1     77     59      0.2871E-01      0.6804E+06
   5948      1     77     60      0.4551E-01      0.6804E+06
   5949      1     77     61      0.5443E-01      0.6804E+06
   5950      1     77     62      0.6121E-01      0.6804E+06
   5951      1     77     63      0.6980E-01      0.6804E+06
   5952      1     77     84      0.3073          0.6804E+06
   5953      1     77     85      0.3018          0.6804E+06
   5954      1     77     86      0.2957          0.6804E+06
   5955      1     77     87      0.2917          0.6804E+06
   5956      1     77     88      0.2919          0.6804E+06
   5957      1     77     89      0.2956          0.6804E+06
   5958      1     77     90      0.3000          0.6804E+06
   5959      1     77     91      0.3039          0.6804E+06
   5960      1     77     92      0.3081          0.6804E+06
   5961      1     77     93      0.3112          0.6804E+06
   5962      1     77     94      0.3141          0.6804E+06
   5963      1     77     95      0.3165          0.6804E+06
   5964      1     77     96      0.3179          0.6804E+06
   5965      1     77     97      0.3191          0.6804E+06
   5966      1     77     98      0.3202          0.6804E+06
   5967      1     77     99      0.3217          0.6804E+06
   5968      1     77    100      0.3232          0.6804E+06
   5969      1     78      1      0.9966          0.6804E+06
   5970      1     78      2      0.9815          0.6804E+06
   5971      1     78      3      0.9683          0.6804E+06
   5972      1     78      4      0.9558          0.6804E+06
   5973      1     78      5      0.9494          0.6804E+06
   5974      1     78      6      0.9436          0.6804E+06
   5975      1     78      7      0.9321          0.6804E+06
   5976      1     78      8      0.9085          0.6804E+06
   5977      1     78      9      0.8707          0.6804E+06
   5978      1     78     10      0.8162          0.6804E+06
   5979      1     78     11      0.7641          0.6804E+06
   5980      1     78     12      0.7026          0.6804E+06
   5981      1     78     13      0.6378          0.6804E+06
   5982      1     78     14      0.5822          0.6804E+06
   5983      1     78     15      0.5215          0.6804E+06
   5984      1     78     16      0.4701          0.6804E+06
   5985      1     78     17      0.4138          0.6804E+06
   5986      1     78     18      0.3609          0.6804E+06
   5987      1     78     19      0.3169          0.6804E+06
   5988      1     78     20      0.2711          0.6804E+06
   5989      1     78     21      0.2337          0.6804E+06
   5990      1     78     22      0.2077          0.6804E+06
   5991      1     78     23      0.1826          0.6804E+06
   5992      1     78     24      0.1633          0.6804E+06
   5993      1     78     25      0.1426          0.6804E+06
   5994      1     78     26      0.1209          0.6804E+06
   5995      1     78     27      0.1036          0.6804E+06
   5996      1     78     28      0.8531E-01      0.6804E+06
   5997      1     78     29      0.6839E-01      0.6804E+06
   5998      1     78     30      0.5733E-01      0.6804E+06
   5999      1     78     31      0.4869E-01      0.6804E+06
   6000      1     78     32      0.4477E-01      0.6804E+06
   6001      1     78     33      0.4533E-01      0.6804E+06
   6002      1     78     34      0.5114E-01      0.6804E+06
   6003      1     78     35      0.5588E-01      0.6804E+06
   6004      1     78     36      0.5993E-01      0.6804E+06
   6005      1     78     37      0.6158E-01      0.6804E+06
   6006      1     78     38      0.5956E-01      0.6804E+06
   6007      1     78     39      0.4993E-01      0.6804E+06
   6008      1     78     40      0.3469E-01      0.6804E+06
   6009      1     78     41      0.1050E-01      0.6804E+06
   6010      1     78     42     -0.1511E-01      0.6804E+06
   6011      1     78     43     -0.4454E-01      0.6804E+06
   6012      1     78     44     -0.1072          0.6804E+06
   6013      1     78     45     -0.1426          0.6804E+06
   6014      1     78     46     -0.1364          0.6804E+06
   6015      1     78     47     -0.1325          0.6804E+06
   6016      1     78     48     -0.1254          0.6804E+06
   6017      1     78     49     -0.1234          0.6804E+06
   6018      1     78     50     -0.1231          0.6804E+06
   6019      1     78     51     -0.1226          0.6804E+06
   6020      1     78     52     -0.1204          0.6804E+06
   6021      1     78     53     -0.1176          0.6804E+06
   6022      1     78     54     -0.1074          0.6804E+06
   6023      1     78     55     -0.7695E-01      0.6804E+06
   6024      1     78     56     -0.3721E-01      0.6804E+06
   6025      1     78     57      0.4687E-03      0.6804E+06
   6026      1     78     58      0.2799E-01      0.6804E+06
   6027      1     78     59      0.4653E-01      0.6804E+06
   6028      1     78     60      0.6140E-01      0.6804E+06
   6029      1     78     61      0.6920E-01      0.6804E+06
   6030      1     78     62      0.7526E-01      0.6804E+06
   6031      1     78     63      0.8481E-01      0.6804E+06
   6032      1     78     64      0.9788E-01      0.6804E+06
   6033      1     78     65      0.1202          0.6804E+06
   6034      1     78     66      0.1457          0.6804E+06
   6035      1     78     85      0.3031          0.6804E+06
   6036      1     78     86      0.2962          0.6804E+06
   6037      1     78     87      0.2915          0.6804E+06
   6038      1     78     88      0.2918          0.6804E+06
   6039      1     78     89      0.2960          0.6804E+06
   6040      1     78     90      0.3008          0.6804E+06
   6041      1     78     91      0.3047          0.6804E+06
   6042      1     78     92      0.3089          0.6804E+06
   6043      1     78     93      0.3119          0.6804E+06
   6044      1     78     94      0.3148          0.6804E+06
   6045      1     78     95      0.3169          0.6804E+06
   6046      1     78     96      0.3182          0.6804E+06
   6047      1     78     97      0.3189          0.6804E+06
   6048      1     78     98      0.3198          0.6804E+06
   6049      1     78     99      0.3214          0.6804E+06
   6050      1     78    100      0.3231          0.6804E+06
   6051      1     79      1      0.9930          0.6804E+06
   6052      1     79      2      0.9799          0.6804E+06
   6053      1     79      3      0.9688          0.6804E+06
   6054      1     79      4      0.9581          0.6804E+06
   6055      1     79      5      0.9501          0.6804E+06
   6056      1     79      6      0.9428          0.6804E+06
   6057      1     79      7      0.9308          0.6804E+06
   6058      1     79      8      0.9096          0.6804E+06
   6059      1     79      9      0.8781          0.6804E+06
   6060      1     79     10      0.8324          0.6804E+06
   6061      1     79     11      0.7875          0.6804E+06
   6062      1     79     12      0.7324          0.6804E+06
   6063      1     79     13      0.6734          0.6804E+06
   6064      1     79     14      0.6212          0.6804E+06
   6065      1     79     15      0.5627          0.6804E+06
   6066      1     79     16      0.5119          0.6804E+06
   6067      1     79     17      0.4540          0.6804E+06
   6068      1     79     18      0.3961          0.6804E+06
   6069      1     79     19      0.3456          0.6804E+06
   6070      1     79     20      0.2921          0.6804E+06
   6071      1     79     21      0.2510          0.6804E+06
   6072      1     79     22      0.2254          0.6804E+06
   6073      1     79     23      0.2012          0.6804E+06
   6074      1     79     24      0.1819          0.6804E+06
   6075      1     79     25      0.1598          0.6804E+06
   6076      1     79     26      0.1358          0.6804E+06
   6077      1     79     27      0.1158          0.6804E+06
   6078      1     79     28      0.9451E-01      0.6804E+06
   6079      1     79     29      0.7495E-01      0.6804E+06
   6080      1     79     30      0.6192E-01      0.6804E+06
   6081      1     79     31      0.5244E-01      0.6804E+06
   6082      1     79     32      0.4801E-01      0.6804E+06
   6083      1     79     33      0.4721E-01      0.6804E+06
   6084      1     79     34      0.5186E-01      0.6804E+06
   6085      1     79     35      0.5652E-01      0.6804E+06
   6086      1     79     36      0.6092E-01      0.6804E+06
   6087      1     79     37      0.6354E-01      0.6804E+06
   6088      1     79     38      0.6399E-01      0.6804E+06
   6089      1     79     39      0.5964E-01      0.6804E+06
   6090      1     79     40      0.5134E-01      0.6804E+06
   6091      1     79     41      0.3708E-01      0.6804E+06
   6092      1     79     42      0.1872E-01      0.6804E+06
   6093      1     79     43      0.2921E-02      0.6804E+06
   6094      1     79     44     -0.2848E-01      0.6804E+06
   6095      1     79     45     -0.4160E-01      0.6804E+06
   6096      1     79     46     -0.2580E-01      0.6804E+06
   6097      1     79     47     -0.2476E-01      0.6804E+06
   6098      1     79     48     -0.2898E-01      0.6804E+06
   6099      1     79     49     -0.3123E-01      0.6804E+06
   6100      1     79     50     -0.2816E-01      0.6804E+06
   6101      1     79     51     -0.2968E-01      0.6804E+06
   6102      1     79     52     -0.2876E-01      0.6804E+06
   6103      1     79     53     -0.2502E-01      0.6804E+06
   6104      1     79     54     -0.1882E-01      0.6804E+06
   6105      1     79     55     -0.8717E-02      0.6804E+06
   6106      1     79     56      0.8236E-02      0.6804E+06
   6107      1     79     57      0.3112E-01      0.6804E+06
   6108      1     79     58      0.5396E-01      0.6804E+06
   6109      1     79     59      0.6928E-01      0.6804E+06
   6110      1     79     60      0.8204E-01      0.6804E+06
   6111      1     79     61      0.8909E-01      0.6804E+06
   6112      1     79     62      0.9480E-01      0.6804E+06
   6113      1     79     63      0.1052          0.6804E+06
   6114      1     79     64      0.1229          0.6804E+06
   6115      1     79     65      0.1452          0.6804E+06
   6116      1     79     66      0.1663          0.6804E+06
   6117      1     79     67      0.1837          0.6804E+06
   6118      1     79     68      0.2034          0.6804E+06
   6119      1     79     86      0.3006          0.6804E+06
   6120      1     79     87      0.2967          0.6804E+06
   6121      1     79     88      0.2965          0.6804E+06
   6122      1     79     89      0.2994          0.6804E+06
   6123      1     79     90      0.3033          0.6804E+06
   6124      1     79     91      0.3068          0.6804E+06
   6125      1     79     92      0.3107          0.6804E+06
   6126      1     79     93      0.3136          0.6804E+06
   6127      1     79     94      0.3163          0.6804E+06
   6128      1     79     95      0.3184          0.6804E+06
   6129      1     79     96      0.3195          0.6804E+06
   6130      1     79     97      0.3201          0.6804E+06
   6131      1     79     98      0.3208          0.6804E+06
   6132      1     79     99      0.3223          0.6804E+06
   6133      1     79    100      0.3238          0.6804E+06
   6134      1     80      1      0.9899          0.6804E+06
   6135      1     80      2      0.9776          0.6804E+06
   6136      1     80      3      0.9673          0.6804E+06
   6137      1     80      4      0.9571          0.6804E+06
   6138      1     80      5      0.9485          0.6804E+06
   6139      1     80      6      0.9403          0.6804E+06
   6140      1     80      7      0.9277          0.6804E+06
   6141      1     80      8      0.9079          0.6804E+06
   6142      1     80      9      0.8820          0.6804E+06
   6143      1     80     10      0.8444          0.6804E+06
   6144      1     80     11      0.8063          0.6804E+06
   6145      1     80     12      0.7577          0.6804E+06
   6146      1     80     13      0.7044          0.6804E+06
   6147      1     80     14      0.6562          0.6804E+06
   6148      1     80     15      0.6013          0.6804E+06
   6149      1     80     16      0.5529          0.6804E+06
   6150      1     80     17      0.4964          0.6804E+06
   6151      1     80     18      0.4353          0.6804E+06
   6152      1     80     19      0.3786          0.6804E+06
   6153      1     80     20      0.3165          0.6804E+06
   6154      1     80     21      0.2724          0.6804E+06
   6155      1     80     22      0.2494          0.6804E+06
   6156      1     80     23      0.2278          0.6804E+06
   6157      1     80     24      0.2080          0.6804E+06
   6158      1     80     25      0.1835          0.6804E+06
   6159      1     80     26      0.1560          0.6804E+06
   6160      1     80     27      0.1323          0.6804E+06
   6161      1     80     28      0.1066          0.6804E+06
   6162      1     80     29      0.8268E-01      0.6804E+06
   6163      1     80     30      0.6861E-01      0.6804E+06
   6164      1     80     31      0.5917E-01      0.6804E+06
   6165      1     80     32      0.5480E-01      0.6804E+06
   6166      1     80     33      0.5309E-01      0.6804E+06
   6167      1     80     34      0.5534E-01      0.6804E+06
   6168      1     80     35      0.5882E-01      0.6804E+06
   6169      1     80     36      0.6308E-01      0.6804E+06
   6170      1     80     37      0.6638E-01      0.6804E+06
   6171      1     80     38      0.6723E-01      0.6804E+06
   6172      1     80     39      0.6600E-01      0.6804E+06
   6173      1     80     40      0.6264E-01      0.6804E+06
   6174      1     80     41      0.5548E-01      0.6804E+06
   6175      1     80     42      0.4323E-01      0.6804E+06
   6176      1     80     43      0.2925E-01      0.6804E+06
   6177      1     80     44      0.1918E-01      0.6804E+06
   6178      1     80     45      0.1882E-01      0.6804E+06
   6179      1     80     46      0.2445E-01      0.6804E+06
   6180      1     80     47      0.2457E-01      0.6804E+06
   6181      1     80     48      0.1905E-01      0.6804E+06
   6182      1     80     49      0.1358E-01      0.6804E+06
   6183      1     80     50      0.1938E-01      0.6804E+06
   6184      1     80     51      0.2135E-01      0.6804E+06
   6185      1     80     52      0.2242E-01      0.6804E+06
   6186      1     80     53      0.2361E-01      0.6804E+06
   6187      1     80     54      0.2176E-01      0.6804E+06
   6188      1     80     55      0.3291E-01      0.6804E+06
   6189      1     80     56      0.4648E-01      0.6804E+06
   6190      1     80     57      0.6447E-01      0.6804E+06
   6191      1     80     58      0.8213E-01      0.6804E+06
   6192      1     80     59      0.9504E-01      0.6804E+06
   6193      1     80     60      0.1072          0.6804E+06
   6194      1     80     61      0.1153          0.6804E+06
   6195      1     80     62      0.1229          0.6804E+06
   6196      1     80     63      0.1327          0.6804E+06
   6197      1     80     64      0.1487          0.6804E+06
   6198      1     80     65      0.1686          0.6804E+06
   6199      1     80     66      0.1877          0.6804E+06
   6200      1     80     67      0.2039          0.6804E+06
   6201      1     80     68      0.2225          0.6804E+06
   6202      1     80     69      0.2374          0.6804E+06
   6203      1     80     70      0.2532          0.6804E+06
   6204      1     80     71      0.2698          0.6804E+06
   6205      1     80     88      0.3024          0.6804E+06
   6206      1     80     89      0.3041          0.6804E+06
   6207      1     80     90      0.3070          0.6804E+06
   6208      1     80     91      0.3099          0.6804E+06
   6209      1     80     92      0.3132          0.6804E+06
   6210      1     80     93      0.3160          0.6804E+06
   6211      1     80     94      0.3187          0.6804E+06
   6212      1     80     95      0.3209          0.6804E+06
   6213      1     80     96      0.3222          0.6804E+06
   6214      1     80     97      0.3232          0.6804E+06
   6215      1     80     98      0.3240          0.6804E+06
   6216      1     80     99      0.3250          0.6804E+06
   6217      1     80    100      0.3257          0.6804E+06
   6218      1     81      1      0.9873          0.6804E+06
   6219      1     81      2      0.9748          0.6804E+06
   6220      1     81      3      0.9642          0.6804E+06
   6221      1     81      4      0.9540          0.6804E+06
   6222      1     81      5      0.9456          0.6804E+06
   6223      1     81      6      0.9378          0.6804E+06
   6224      1     81      7      0.9260          0.6804E+06
   6225      1     81      8      0.9082          0.6804E+06
   6226      1     81      9      0.8861          0.6804E+06
   6227      1     81     10      0.8542          0.6804E+06
   6228      1     81     11      0.8212          0.6804E+06
   6229      1     81     12      0.7781          0.6804E+06
   6230      1     81     13      0.7292          0.6804E+06
   6231      1     81     14      0.6841          0.6804E+06
   6232      1     81     15      0.6324          0.6804E+06
   6233      1     81     16      0.5867          0.6804E+06
   6234      1     81     17      0.5332          0.6804E+06
   6235      1     81     18      0.4722          0.6804E+06
   6236      1     81     19      0.4140          0.6804E+06
   6237      1     81     20      0.3499          0.6804E+06
   6238      1     81     21      0.3059          0.6804E+06
   6239      1     81     22      0.2829          0.6804E+06
   6240      1     81     23      0.2601          0.6804E+06
   6241      1     81     24      0.2379          0.6804E+06
   6242      1     81     25      0.2098          0.6804E+06
   6243      1     81     26      0.1785          0.6804E+06
   6244      1     81     27      0.1509          0.6804E+06
   6245      1     81     28      0.1198          0.6804E+06
   6246      1     81     29      0.9064E-01      0.6804E+06
   6247      1     81     30      0.7631E-01      0.6804E+06
   6248      1     81     31      0.6747E-01      0.6804E+06
   6249      1     81     32      0.6310E-01      0.6804E+06
   6250      1     81     33      0.6036E-01      0.6804E+06
   6251      1     81     34      0.6055E-01      0.6804E+06
   6252      1     81     35      0.6221E-01      0.6804E+06
   6253      1     81     36      0.6534E-01      0.6804E+06
   6254      1     81     37      0.6907E-01      0.6804E+06
   6255      1     81     38      0.7030E-01      0.6804E+06
   6256      1     81     39      0.6990E-01      0.6804E+06
   6257      1     81     40      0.6899E-01      0.6804E+06
   6258      1     81     41      0.6721E-01      0.6804E+06
   6259      1     81     42      0.6061E-01      0.6804E+06
   6260      1     81     43      0.5408E-01      0.6804E+06
   6261      1     81     44      0.5025E-01      0.6804E+06
   6262      1     81     45      0.5074E-01      0.6804E+06
   6263      1     81     46      0.5356E-01      0.6804E+06
   6264      1     81     47      0.5413E-01      0.6804E+06
   6265      1     81     48      0.5197E-01      0.6804E+06
   6266      1     81     49      0.4898E-01      0.6804E+06
   6267      1     81     50      0.5022E-01      0.6804E+06
   6268      1     81     51      0.5167E-01      0.6804E+06
   6269      1     81     52      0.5304E-01      0.6804E+06
   6270      1     81     53      0.5547E-01      0.6804E+06
   6271      1     81     54      0.6126E-01      0.6804E+06
   6272      1     81     55      0.6774E-01      0.6804E+06
   6273      1     81     56      0.7753E-01      0.6804E+06
   6274      1     81     57      0.9229E-01      0.6804E+06
   6275      1     81     58      0.1069          0.6804E+06
   6276      1     81     59      0.1191          0.6804E+06
   6277      1     81     60      0.1316          0.6804E+06
   6278      1     81     61      0.1408          0.6804E+06
   6279      1     81     62      0.1502          0.6804E+06
   6280      1     81     63      0.1612          0.6804E+06
   6281      1     81     64      0.1742          0.6804E+06
   6282      1     81     65      0.1903          0.6804E+06
   6283      1     81     66      0.2068          0.6804E+06
   6284      1     81     67      0.2209          0.6804E+06
   6285      1     81     68      0.2372          0.6804E+06
   6286      1     81     69      0.2505          0.6804E+06
   6287      1     81     70      0.2648          0.6804E+06
   6288      1     81     71      0.2791          0.6804E+06
   6289      1     81     72      0.2915          0.6804E+06
   6290      1     81     73      0.3039          0.6804E+06
   6291      1     81     89      0.3084          0.6804E+06
   6292      1     81     90      0.3106          0.6804E+06
   6293      1     81     91      0.3130          0.6804E+06
   6294      1     81     92      0.3159          0.6804E+06
   6295      1     81     93      0.3186          0.6804E+06
   6296      1     81     94      0.3213          0.6804E+06
   6297      1     81     95      0.3236          0.6804E+06
   6298      1     81     96      0.3252          0.6804E+06
   6299      1     81     97      0.3265          0.6804E+06
   6300      1     81     98      0.3273          0.6804E+06
   6301      1     81     99      0.3279          0.6804E+06
   6302      1     81    100      0.3280          0.6804E+06
   6303      1     82      1      0.9850          0.6804E+06
   6304      1     82      2      0.9718          0.6804E+06
   6305      1     82      3      0.9600          0.6804E+06
   6306      1     82      4      0.9491          0.6804E+06
   6307      1     82      5      0.9421          0.6804E+06
   6308      1     82      6      0.9359          0.6804E+06
   6309      1     82      7      0.9258          0.6804E+06
   6310      1     82      8      0.9106          0.6804E+06
   6311      1     82      9      0.8921          0.6804E+06
   6312      1     82     10      0.8655          0.6804E+06
   6313      1     82     11      0.8377          0.6804E+06
   6314      1     82     12      0.8005          0.6804E+06
   6315      1     82     13      0.7551          0.6804E+06
   6316      1     82     14      0.7127          0.6804E+06
   6317      1     82     15      0.6637          0.6804E+06
   6318      1     82     16      0.6205          0.6804E+06
   6319      1     82     17      0.5704          0.6804E+06
   6320      1     82     18      0.5144          0.6804E+06
   6321      1     82     19      0.4626          0.6804E+06
   6322      1     82     20      0.4066          0.6804E+06
   6323      1     82     21      0.3648          0.6804E+06
   6324      1     82     22      0.3372          0.6804E+06
   6325      1     82     23      0.3074          0.6804E+06
   6326      1     82     24      0.2799          0.6804E+06
   6327      1     82     25      0.2462          0.6804E+06
   6328      1     82     26      0.2099          0.6804E+06
   6329      1     82     27      0.1777          0.6804E+06
   6330      1     82     28      0.1418          0.6804E+06
   6331      1     82     29      0.1090          0.6804E+06
   6332      1     82     30      0.9295E-01      0.6804E+06
   6333      1     82     31      0.8270E-01      0.6804E+06
   6334      1     82     32      0.7687E-01      0.6804E+06
   6335      1     82     33      0.7207E-01      0.6804E+06
   6336      1     82     34      0.6935E-01      0.6804E+06
   6337      1     82     35      0.6826E-01      0.6804E+06
   6338      1     82     36      0.6823E-01      0.6804E+06
   6339      1     82     37      0.6906E-01      0.6804E+06
   6340      1     82     38      0.6936E-01      0.6804E+06
   6341      1     82     39      0.7038E-01      0.6804E+06
   6342      1     82     40      0.7195E-01      0.6804E+06
   6343      1     82     41      0.7384E-01      0.6804E+06
   6344      1     82     42      0.7322E-01      0.6804E+06
   6345      1     82     43      0.7371E-01      0.6804E+06
   6346      1     82     44      0.7529E-01      0.6804E+06
   6347      1     82     45      0.7636E-01      0.6804E+06
   6348      1     82     46      0.7753E-01      0.6804E+06
   6349      1     82     47      0.7820E-01      0.6804E+06
   6350      1     82     48      0.7750E-01      0.6804E+06
   6351      1     82     49      0.7578E-01      0.6804E+06
   6352      1     82     50      0.7534E-01      0.6804E+06
   6353      1     82     51      0.7593E-01      0.6804E+06
   6354      1     82     52      0.7831E-01      0.6804E+06
   6355      1     82     53      0.8291E-01      0.6804E+06
   6356      1     82     54      0.9131E-01      0.6804E+06
   6357      1     82     55      0.9968E-01      0.6804E+06
   6358      1     82     56      0.1089          0.6804E+06
   6359      1     82     57      0.1216          0.6804E+06
   6360      1     82     58      0.1348          0.6804E+06
   6361      1     82     59      0.1470          0.6804E+06
   6362      1     82     60      0.1603          0.6804E+06
   6363      1     82     61      0.1704          0.6804E+06
   6364      1     82     62      0.1810          0.6804E+06
   6365      1     82     63      0.1926          0.6804E+06
   6366      1     82     64      0.2028          0.6804E+06
   6367      1     82     65      0.2148          0.6804E+06
   6368      1     82     66      0.2283          0.6804E+06
   6369      1     82     67      0.2402          0.6804E+06
   6370      1     82     68      0.2534          0.6804E+06
   6371      1     82     69      0.2645          0.6804E+06
   6372      1     82     70      0.2771          0.6804E+06
   6373      1     82     71      0.2900          0.6804E+06
   6374      1     82     72      0.3005          0.6804E+06
   6375      1     82     73      0.3111          0.6804E+06
   6376      1     82     74      0.3200          0.6804E+06
   6377      1     82     75      0.3267          0.6804E+06
   6378      1     82     91      0.3166          0.6804E+06
   6379      1     82     92      0.3193          0.6804E+06
   6380      1     82     93      0.3217          0.6804E+06
   6381      1     82     94      0.3244          0.6804E+06
   6382      1     82     95      0.3270          0.6804E+06
   6383      1     82     96      0.3290          0.6804E+06
   6384      1     82     97      0.3307          0.6804E+06
   6385      1     82     98      0.3315          0.6804E+06
   6386      1     82     99      0.3317          0.6804E+06
   6387      1     82    100      0.3309          0.6804E+06
   6388      1     83      1      0.9840          0.6804E+06
   6389      1     83      2      0.9704          0.6804E+06
   6390      1     83      3      0.9581          0.6804E+06
   6391      1     83      4      0.9471          0.6804E+06
   6392      1     83      5      0.9411          0.6804E+06
   6393      1     83      6      0.9360          0.6804E+06
   6394      1     83      7      0.9273          0.6804E+06
   6395      1     83      8      0.9141          0.6804E+06
   6396      1     83      9      0.8983          0.6804E+06
   6397      1     83     10      0.8753          0.6804E+06
   6398      1     83     11      0.8507          0.6804E+06
   6399      1     83     12      0.8168          0.6804E+06
   6400      1     83     13      0.7746          0.6804E+06
   6401      1     83     14      0.7343          0.6804E+06
   6402      1     83     15      0.6870          0.6804E+06
   6403      1     83     16      0.6451          0.6804E+06
   6404      1     83     17      0.5973          0.6804E+06
   6405      1     83     18      0.5485          0.6804E+06
   6406      1     83     19      0.5057          0.6804E+06
   6407      1     83     20      0.4602          0.6804E+06
   6408      1     83     21      0.4227          0.6804E+06
   6409      1     83     22      0.3923          0.6804E+06
   6410      1     83     23      0.3560          0.6804E+06
   6411      1     83     24      0.3226          0.6804E+06
   6412      1     83     25      0.2831          0.6804E+06
   6413      1     83     26      0.2420          0.6804E+06
   6414      1     83     27      0.2066          0.6804E+06
   6415      1     83     28      0.1686          0.6804E+06
   6416      1     83     29      0.1354          0.6804E+06
   6417      1     83     30      0.1159          0.6804E+06
   6418      1     83     31      0.1014          0.6804E+06
   6419      1     83     32      0.9273E-01      0.6804E+06
   6420      1     83     33      0.8520E-01      0.6804E+06
   6421      1     83     34      0.7963E-01      0.6804E+06
   6422      1     83     35      0.7584E-01      0.6804E+06
   6423      1     83     36      0.7254E-01      0.6804E+06
   6424      1     83     37      0.7060E-01      0.6804E+06
   6425      1     83     38      0.7009E-01      0.6804E+06
   6426      1     83     39      0.7160E-01      0.6804E+06
   6427      1     83     40      0.7453E-01      0.6804E+06
   6428      1     83     41      0.7913E-01      0.6804E+06
   6429      1     83     42      0.8310E-01      0.6804E+06
   6430      1     83     43      0.8644E-01      0.6804E+06
   6431      1     83     44      0.8984E-01      0.6804E+06
   6432      1     83     45      0.9203E-01      0.6804E+06
   6433      1     83     46      0.9308E-01      0.6804E+06
   6434      1     83     47      0.9360E-01      0.6804E+06
   6435      1     83     48      0.9308E-01      0.6804E+06
   6436      1     83     49      0.9166E-01      0.6804E+06
   6437      1     83     50      0.9102E-01      0.6804E+06
   6438      1     83     51      0.9196E-01      0.6804E+06
   6439      1     83     52      0.9631E-01      0.6804E+06
   6440      1     83     53      0.1034          0.6804E+06
   6441      1     83     54      0.1127          0.6804E+06
   6442      1     83     55      0.1222          0.6804E+06
   6443      1     83     56      0.1318          0.6804E+06
   6444      1     83     57      0.1448          0.6804E+06
   6445      1     83     58      0.1583          0.6804E+06
   6446      1     83     59      0.1710          0.6804E+06
   6447      1     83     60      0.1849          0.6804E+06
   6448      1     83     61      0.1956          0.6804E+06
   6449      1     83     62      0.2064          0.6804E+06
   6450      1     83     63      0.2176          0.6804E+06
   6451      1     83     64      0.2264          0.6804E+06
   6452      1     83     65      0.2358          0.6804E+06
   6453      1     83     66      0.2462          0.6804E+06
   6454      1     83     67      0.2563          0.6804E+06
   6455      1     83     68      0.2671          0.6804E+06
   6456      1     83     69      0.2763          0.6804E+06
   6457      1     83     70      0.2870          0.6804E+06
   6458      1     83     71      0.2986          0.6804E+06
   6459      1     83     72      0.3077          0.6804E+06
   6460      1     83     73      0.3169          0.6804E+06
   6461      1     83     74      0.3249          0.6804E+06
   6462      1     83     75      0.3310          0.6804E+06
   6463      1     83     76      0.3361          0.6804E+06
   6464      1     83     77      0.3381          0.6804E+06
   6465      1     83     93      0.3245          0.6804E+06
   6466      1     83     94      0.3272          0.6804E+06
   6467      1     83     95      0.3299          0.6804E+06
   6468      1     83     96      0.3322          0.6804E+06
   6469      1     83     97      0.3344          0.6804E+06
   6470      1     83     98      0.3353          0.6804E+06
   6471      1     83     99      0.3350          0.6804E+06
   6472      1     83    100      0.3336          0.6804E+06
   6473      1     84      1      0.9842          0.6804E+06
   6474      1     84      2      0.9714          0.6804E+06
   6475      1     84      3      0.9601          0.6804E+06
   6476      1     84      4      0.9499          0.6804E+06
   6477      1     84      5      0.9436          0.6804E+06
   6478      1     84      6      0.9385          0.6804E+06
   6479      1     84      7      0.9306          0.6804E+06
   6480      1     84      8      0.9193          0.6804E+06
   6481      1     84      9      0.9060          0.6804E+06
   6482      1     84     10      0.8864          0.6804E+06
   6483      1     84     11      0.8648          0.6804E+06
   6484      1     84     12      0.8339          0.6804E+06
   6485      1     84     13      0.7947          0.6804E+06
   6486      1     84     14      0.7563          0.6804E+06
   6487      1     84     15      0.7101          0.6804E+06
   6488      1     84     16      0.6693          0.6804E+06
   6489      1     84     17      0.6246          0.6804E+06
   6490      1     84     18      0.5839          0.6804E+06
   6491      1     84     19      0.5514          0.6804E+06
   6492      1     84     20      0.5184          0.6804E+06
   6493      1     84     21      0.4889          0.6804E+06
   6494      1     84     22      0.4576          0.6804E+06
   6495      1     84     23      0.4144          0.6804E+06
   6496      1     84     24      0.3732          0.6804E+06
   6497      1     84     25      0.3265          0.6804E+06
   6498      1     84     26      0.2805          0.6804E+06
   6499      1     84     27      0.2423          0.6804E+06
   6500      1     84     28      0.2028          0.6804E+06
   6501      1     84     29      0.1690          0.6804E+06
   6502      1     84     30      0.1462          0.6804E+06
   6503      1     84     31      0.1270          0.6804E+06
   6504      1     84     32      0.1144          0.6804E+06
   6505      1     84     33      0.1032          0.6804E+06
   6506      1     84     34      0.9457E-01      0.6804E+06
   6507      1     84     35      0.8780E-01      0.6804E+06
   6508      1     84     36      0.8105E-01      0.6804E+06
   6509      1     84     37      0.7706E-01      0.6804E+06
   6510      1     84     38      0.7524E-01      0.6804E+06
   6511      1     84     39      0.7590E-01      0.6804E+06
   6512      1     84     40      0.7921E-01      0.6804E+06
   6513      1     84     41      0.8587E-01      0.6804E+06
   6514      1     84     42      0.9323E-01      0.6804E+06
   6515      1     84     43      0.9840E-01      0.6804E+06
   6516      1     84     44      0.1035          0.6804E+06
   6517      1     84     45      0.1076          0.6804E+06
   6518      1     84     46      0.1095          0.6804E+06
   6519      1     84     47      0.1103          0.6804E+06
   6520      1     84     48      0.1097          0.6804E+06
   6521      1     84     49      0.1079          0.6804E+06
   6522      1     84     50      0.1068          0.6804E+06
   6523      1     84     51      0.1084          0.6804E+06
   6524      1     84     52      0.1140          0.6804E+06
   6525      1     84     53      0.1223          0.6804E+06
   6526      1     84     54      0.1333          0.6804E+06
   6527      1     84     55      0.1446          0.6804E+06
   6528      1     84     56      0.1556          0.6804E+06
   6529      1     84     57      0.1696          0.6804E+06
   6530      1     84     58      0.1837          0.6804E+06
   6531      1     84     59      0.1967          0.6804E+06
   6532      1     84     60      0.2114          0.6804E+06
   6533      1     84     61      0.2228          0.6804E+06
   6534      1     84     62      0.2339          0.6804E+06
   6535      1     84     63      0.2447          0.6804E+06
   6536      1     84     64      0.2522          0.6804E+06
   6537      1     84     65      0.2589          0.6804E+06
   6538      1     84     66      0.2654          0.6804E+06
   6539      1     84     67      0.2731          0.6804E+06
   6540      1     84     68      0.2817          0.6804E+06
   6541      1     84     69      0.2889          0.6804E+06
   6542      1     84     70      0.2972          0.6804E+06
   6543      1     84     71      0.3072          0.6804E+06
   6544      1     84     72      0.3147          0.6804E+06
   6545      1     84     73      0.3223          0.6804E+06
   6546      1     84     74      0.3292          0.6804E+06
   6547      1     84     75      0.3346          0.6804E+06
   6548      1     84     76      0.3388          0.6804E+06
   6549      1     84     77      0.3398          0.6804E+06
   6550      1     84     78      0.3385          0.6804E+06
   6551      1     84     79      0.3366          0.6804E+06
   6552      1     84     80      0.3348          0.6804E+06
   6553      1     84     94      0.3300          0.6804E+06
   6554      1     84     95      0.3329          0.6804E+06
   6555      1     84     96      0.3355          0.6804E+06
   6556      1     84     97      0.3383          0.6804E+06
   6557      1     84     98      0.3393          0.6804E+06
   6558      1     84     99      0.3385          0.6804E+06
   6559      1     84    100      0.3364          0.6804E+06
   6560      1     85      1      0.9851          0.6804E+06
   6561      1     85      2      0.9739          0.6804E+06
   6562      1     85      3      0.9643          0.6804E+06
   6563      1     85      4      0.9552          0.6804E+06
   6564      1     85      5      0.9484          0.6804E+06
   6565      1     85      6      0.9428          0.6804E+06
   6566      1     85      7      0.9352          0.6804E+06
   6567      1     85      8      0.9253          0.6804E+06
   6568      1     85      9      0.9141          0.6804E+06
   6569      1     85     10      0.8975          0.6804E+06
   6570      1     85     11      0.8790          0.6804E+06
   6571      1     85     12      0.8511          0.6804E+06
   6572      1     85     13      0.8140          0.6804E+06
   6573      1     85     14      0.7764          0.6804E+06
   6574      1     85     15      0.7303          0.6804E+06
   6575      1     85     16      0.6897          0.6804E+06
   6576      1     85     17      0.6478          0.6804E+06
   6577      1     85     18      0.6139          0.6804E+06
   6578      1     85     19      0.5904          0.6804E+06
   6579      1     85     20      0.5688          0.6804E+06
   6580      1     85     21      0.5502          0.6804E+06
   6581      1     85     22      0.5192          0.6804E+06
   6582      1     85     23      0.4683          0.6804E+06
   6583      1     85     24      0.4203          0.6804E+06
   6584      1     85     25      0.3680          0.6804E+06
   6585      1     85     26      0.3183          0.6804E+06
   6586      1     85     27      0.2781          0.6804E+06
   6587      1     85     28      0.2371          0.6804E+06
   6588      1     85     29      0.2016          0.6804E+06
   6589      1     85     30      0.1764          0.6804E+06
   6590      1     85     31      0.1540          0.6804E+06
   6591      1     85     32      0.1384          0.6804E+06
   6592      1     85     33      0.1238          0.6804E+06
   6593      1     85     34      0.1125          0.6804E+06
   6594      1     85     35      0.1035          0.6804E+06
   6595      1     85     36      0.9425E-01      0.6804E+06
   6596      1     85     37      0.8752E-01      0.6804E+06
   6597      1     85     38      0.8307E-01      0.6804E+06
   6598      1     85     39      0.8269E-01      0.6804E+06
   6599      1     85     40      0.8671E-01      0.6804E+06
   6600      1     85     41      0.9372E-01      0.6804E+06
   6601      1     85     42      0.1019          0.6804E+06
   6602      1     85     43      0.1097          0.6804E+06
   6603      1     85     44      0.1181          0.6804E+06
   6604      1     85     45      0.1238          0.6804E+06
   6605      1     85     46      0.1266          0.6804E+06
   6606      1     85     47      0.1277          0.6804E+06
   6607      1     85     48      0.1268          0.6804E+06
   6608      1     85     49      0.1242          0.6804E+06
   6609      1     85     50      0.1220          0.6804E+06
   6610      1     85     51      0.1240          0.6804E+06
   6611      1     85     52      0.1306          0.6804E+06
   6612      1     85     53      0.1402          0.6804E+06
   6613      1     85     54      0.1527          0.6804E+06
   6614      1     85     55      0.1658          0.6804E+06
   6615      1     85     56      0.1781          0.6804E+06
   6616      1     85     57      0.1930          0.6804E+06
   6617      1     85     58      0.2078          0.6804E+06
   6618      1     85     59      0.2212          0.6804E+06
   6619      1     85     60      0.2367          0.6804E+06
   6620      1     85     61      0.2491          0.6804E+06
   6621      1     85     62      0.2610          0.6804E+06
   6622      1     85     63      0.2708          0.6804E+06
   6623      1     85     64      0.2763          0.6804E+06
   6624      1     85     65      0.2798          0.6804E+06
   6625      1     85     66      0.2834          0.6804E+06
   6626      1     85     67      0.2877          0.6804E+06
   6627      1     85     68      0.2941          0.6804E+06
   6628      1     85     69      0.3002          0.6804E+06
   6629      1     85     70      0.3069          0.6804E+06
   6630      1     85     71      0.3145          0.6804E+06
   6631      1     85     72      0.3201          0.6804E+06
   6632      1     85     73      0.3260          0.6804E+06
   6633      1     85     74      0.3313          0.6804E+06
   6634      1     85     75      0.3356          0.6804E+06
   6635      1     85     76      0.3386          0.6804E+06
   6636      1     85     77      0.3392          0.6804E+06
   6637      1     85     78      0.3377          0.6804E+06
   6638      1     85     79      0.3360          0.6804E+06
   6639      1     85     80      0.3344          0.6804E+06
   6640      1     85     81      0.3324          0.6804E+06
   6641      1     85     82      0.3301          0.6804E+06
   6642      1     85     95      0.3351          0.6804E+06
   6643      1     85     96      0.3376          0.6804E+06
   6644      1     85     97      0.3401          0.6804E+06
   6645      1     85     98      0.3411          0.6804E+06
   6646      1     85     99      0.3404          0.6804E+06
   6647      1     85    100      0.3384          0.6804E+06
   6648      1     86      1      0.9855          0.6804E+06
   6649      1     86      2      0.9757          0.6804E+06
   6650      1     86      3      0.9674          0.6804E+06
   6651      1     86      4      0.9592          0.6804E+06
   6652      1     86      5      0.9524          0.6804E+06
   6653      1     86      6      0.9466          0.6804E+06
   6654      1     86      7      0.9393          0.6804E+06
   6655      1     86      8      0.9304          0.6804E+06
   6656      1     86      9      0.9207          0.6804E+06
   6657      1     86     10      0.9070          0.6804E+06
   6658      1     86     11      0.8916          0.6804E+06
   6659      1     86     12      0.8672          0.6804E+06
   6660      1     86     13      0.8310          0.6804E+06
   6661      1     86     14      0.7931          0.6804E+06
   6662      1     86     15      0.7462          0.6804E+06
   6663      1     86     16      0.7049          0.6804E+06
   6664      1     86     17      0.6641          0.6804E+06
   6665      1     86     18      0.6349          0.6804E+06
   6666      1     86     19      0.6180          0.6804E+06
   6667      1     86     20      0.6034          0.6804E+06
   6668      1     86     21      0.5916          0.6804E+06
   6669      1     86     22      0.5612          0.6804E+06
   6670      1     86     23      0.5063          0.6804E+06
   6671      1     86     24      0.4556          0.6804E+06
   6672      1     86     25      0.4009          0.6804E+06
   6673      1     86     26      0.3494          0.6804E+06
   6674      1     86     27      0.3078          0.6804E+06
   6675      1     86     28      0.2656          0.6804E+06
   6676      1     86     29      0.2287          0.6804E+06
   6677      1     86     30      0.2021          0.6804E+06
   6678      1     86     31      0.1776          0.6804E+06
   6679      1     86     32      0.1602          0.6804E+06
   6680      1     86     33      0.1437          0.6804E+06
   6681      1     86     34      0.1306          0.6804E+06
   6682      1     86     35      0.1205          0.6804E+06
   6683      1     86     36      0.1101          0.6804E+06
   6684      1     86     37      0.1013          0.6804E+06
   6685      1     86     38      0.9466E-01      0.6804E+06
   6686      1     86     39      0.9319E-01      0.6804E+06
   6687      1     86     40      0.9788E-01      0.6804E+06
   6688      1     86     41      0.1051          0.6804E+06
   6689      1     86     42      0.1140          0.6804E+06
   6690      1     86     43      0.1231          0.6804E+06
   6691      1     86     44      0.1331          0.6804E+06
   6692      1     86     45      0.1390          0.6804E+06
   6693      1     86     46      0.1419          0.6804E+06
   6694      1     86     47      0.1431          0.6804E+06
   6695      1     86     48      0.1420          0.6804E+06
   6696      1     86     49      0.1384          0.6804E+06
   6697      1     86     50      0.1353          0.6804E+06
   6698      1     86     51      0.1373          0.6804E+06
   6699      1     86     52      0.1452          0.6804E+06
   6700      1     86     53      0.1563          0.6804E+06
   6701      1     86     54      0.1700          0.6804E+06
   6702      1     86     55      0.1844          0.6804E+06
   6703      1     86     56      0.1973          0.6804E+06
   6704      1     86     57      0.2125          0.6804E+06
   6705      1     86     58      0.2274          0.6804E+06
   6706      1     86     59      0.2409          0.6804E+06
   6707      1     86     60      0.2565          0.6804E+06
   6708      1     86     61      0.2695          0.6804E+06
   6709      1     86     62      0.2835          0.6804E+06
   6710      1     86     63      0.2917          0.6804E+06
   6711      1     86     64      0.2942          0.6804E+06
   6712      1     86     65      0.2942          0.6804E+06
   6713      1     86     66      0.2955          0.6804E+06
   6714      1     86     67      0.2987          0.6804E+06
   6715      1     86     68      0.3035          0.6804E+06
   6716      1     86     69      0.3083          0.6804E+06
   6717      1     86     70      0.3140          0.6804E+06
   6718      1     86     71      0.3193          0.6804E+06
   6719      1     86     72      0.3234          0.6804E+06
   6720      1     86     73      0.3277          0.6804E+06
   6721      1     86     74      0.3315          0.6804E+06
   6722      1     86     75      0.3342          0.6804E+06
   6723      1     86     76      0.3360          0.6804E+06
   6724      1     86     77      0.3364          0.6804E+06
   6725      1     86     78      0.3358          0.6804E+06
   6726      1     86     79      0.3346          0.6804E+06
   6727      1     86     80      0.3333          0.6804E+06
   6728      1     86     81      0.3318          0.6804E+06
   6729      1     86     82      0.3300          0.6804E+06
   6730      1     86     83      0.3282          0.6804E+06
   6731      1     86     84      0.3265          0.6804E+06
   6732      1     87      1      0.9846          0.6804E+06
   6733      1     87      2      0.9765          0.6804E+06
   6734      1     87      3      0.9696          0.6804E+06
   6735      1     87      4      0.9623          0.6804E+06
   6736      1     87      5      0.9557          0.6804E+06
   6737      1     87      6      0.9500          0.6804E+06
   6738      1     87      7      0.9431          0.6804E+06
   6739      1     87      8      0.9350          0.6804E+06
   6740      1     87      9      0.9266          0.6804E+06
   6741      1     87     10      0.9151          0.6804E+06
   6742      1     87     11      0.9029          0.6804E+06
   6743      1     87     12      0.8834          0.6804E+06
   6744      1     87     13      0.8484          0.6804E+06
   6745      1     87     14      0.8102          0.6804E+06
   6746      1     87     15      0.7640          0.6804E+06
   6747      1     87     16      0.7228          0.6804E+06
   6748      1     87     17      0.6824          0.6804E+06
   6749      1     87     18      0.6561          0.6804E+06
   6750      1     87     19      0.6434          0.6804E+06
   6751      1     87     20      0.6288          0.6804E+06
   6752      1     87     21      0.6099          0.6804E+06
   6753      1     87     22      0.5807          0.6804E+06
   6754      1     87     23      0.5333          0.6804E+06
   6755      1     87     24      0.4860          0.6804E+06
   6756      1     87     25      0.4325          0.6804E+06
   6757      1     87     26      0.3809          0.6804E+06
   6758      1     87     27      0.3388          0.6804E+06
   6759      1     87     28      0.2957          0.6804E+06
   6760      1     87     29      0.2578          0.6804E+06
   6761      1     87     30      0.2300          0.6804E+06
   6762      1     87     31      0.2041          0.6804E+06
   6763      1     87     32      0.1854          0.6804E+06
   6764      1     87     33      0.1678          0.6804E+06
   6765      1     87     34      0.1536          0.6804E+06
   6766      1     87     35      0.1427          0.6804E+06
   6767      1     87     36      0.1319          0.6804E+06
   6768      1     87     37      0.1232          0.6804E+06
   6769      1     87     38      0.1179          0.6804E+06
   6770      1     87     39      0.1161          0.6804E+06
   6771      1     87     40      0.1185          0.6804E+06
   6772      1     87     41      0.1230          0.6804E+06
   6773      1     87     42      0.1327          0.6804E+06
   6774      1     87     43      0.1428          0.6804E+06
   6775      1     87     44      0.1536          0.6804E+06
   6776      1     87     45      0.1606          0.6804E+06
   6777      1     87     46      0.1636          0.6804E+06
   6778      1     87     47      0.1645          0.6804E+06
   6779      1     87     48      0.1623          0.6804E+06
   6780      1     87     49      0.1561          0.6804E+06
   6781      1     87     50      0.1515          0.6804E+06
   6782      1     87     51      0.1535          0.6804E+06
   6783      1     87     52      0.1623          0.6804E+06
   6784      1     87     53      0.1751          0.6804E+06
   6785      1     87     54      0.1906          0.6804E+06
   6786      1     87     55      0.2061          0.6804E+06
   6787      1     87     56      0.2192          0.6804E+06
   6788      1     87     57      0.2333          0.6804E+06
   6789      1     87     58      0.2476          0.6804E+06
   6790      1     87     59      0.2603          0.6804E+06
   6791      1     87     60      0.2750          0.6804E+06
   6792      1     87     61      0.2880          0.6804E+06
   6793      1     87     62      0.3038          0.6804E+06
   6794      1     87     63      0.3098          0.6804E+06
   6795      1     87     64      0.3096          0.6804E+06
   6796      1     87     65      0.3069          0.6804E+06
   6797      1     87     66      0.3062          0.6804E+06
   6798      1     87     67      0.3083          0.6804E+06
   6799      1     87     68      0.3114          0.6804E+06
   6800      1     87     69      0.3149          0.6804E+06
   6801      1     87     70      0.3202          0.6804E+06
   6802      1     87     71      0.3235          0.6804E+06
   6803      1     87     72      0.3261          0.6804E+06
   6804      1     87     73      0.3287          0.6804E+06
   6805      1     87     74      0.3304          0.6804E+06
   6806      1     87     75      0.3316          0.6804E+06
   6807      1     87     76      0.3324          0.6804E+06
   6808      1     87     77      0.3326          0.6804E+06
   6809      1     87     78      0.3327          0.6804E+06
   6810      1     87     79      0.3323          0.6804E+06
   6811      1     87     80      0.3316          0.6804E+06
   6812      1     87     81      0.3306          0.6804E+06
   6813      1     87     82      0.3294          0.6804E+06
   6814      1     87     83      0.3280          0.6804E+06
   6815      1     87     84      0.3268          0.6804E+06
   6816      1     87     85      0.3259          0.6804E+06
   6817      1     87     86      0.3252          0.6804E+06
   6818      1     88      1      0.9821          0.6804E+06
   6819      1     88      2      0.9755          0.6804E+06
   6820      1     88      3      0.9698          0.6804E+06
   6821      1     88      4      0.9636          0.6804E+06
   6822      1     88      5      0.9574          0.6804E+06
   6823      1     88      6      0.9519          0.6804E+06
   6824      1     88      7      0.9453          0.6804E+06
   6825      1     88      8      0.9377          0.6804E+06
   6826      1     88      9      0.9298          0.6804E+06
   6827      1     88     10      0.9193          0.6804E+06
   6828      1     88     11      0.9080          0.6804E+06
   6829      1     88     12      0.8898          0.6804E+06
   6830      1     88     13      0.8582          0.6804E+06
   6831      1     88     14      0.8239          0.6804E+06
   6832      1     88     15      0.7824          0.6804E+06
   6833      1     88     16      0.7458          0.6804E+06
   6834      1     88     17      0.7097          0.6804E+06
   6835      1     88     18      0.6842          0.6804E+06
   6836      1     88     19      0.6688          0.6804E+06
   6837      1     88     20      0.6502          0.6804E+06
   6838      1     88     21      0.6260          0.6804E+06
   6839      1     88     22      0.5967          0.6804E+06
   6840      1     88     23      0.5534          0.6804E+06
   6841      1     88     24      0.5099          0.6804E+06
   6842      1     88     25      0.4586          0.6804E+06
   6843      1     88     26      0.4080          0.6804E+06
   6844      1     88     27      0.3659          0.6804E+06
   6845      1     88     28      0.3223          0.6804E+06
   6846      1     88     29      0.2838          0.6804E+06
   6847      1     88     30      0.2554          0.6804E+06
   6848      1     88     31      0.2291          0.6804E+06
   6849      1     88     32      0.2103          0.6804E+06
   6850      1     88     33      0.1926          0.6804E+06
   6851      1     88     34      0.1782          0.6804E+06
   6852      1     88     35      0.1674          0.6804E+06
   6853      1     88     36      0.1573          0.6804E+06
   6854      1     88     37      0.1509          0.6804E+06
   6855      1     88     38      0.1495          0.6804E+06
   6856      1     88     39      0.1487          0.6804E+06
   6857      1     88     40      0.1479          0.6804E+06
   6858      1     88     41      0.1499          0.6804E+06
   6859      1     88     42      0.1588          0.6804E+06
   6860      1     88     43      0.1684          0.6804E+06
   6861      1     88     44      0.1789          0.6804E+06
   6862      1     88     45      0.1866          0.6804E+06
   6863      1     88     46      0.1898          0.6804E+06
   6864      1     88     47      0.1899          0.6804E+06
   6865      1     88     48      0.1867          0.6804E+06
   6866      1     88     49      0.1810          0.6804E+06
   6867      1     88     50      0.1754          0.6804E+06
   6868      1     88     51      0.1767          0.6804E+06
   6869      1     88     52      0.1854          0.6804E+06
   6870      1     88     53      0.1985          0.6804E+06
   6871      1     88     54      0.2139          0.6804E+06
   6872      1     88     55      0.2281          0.6804E+06
   6873      1     88     56      0.2402          0.6804E+06
   6874      1     88     57      0.2541          0.6804E+06
   6875      1     88     58      0.2660          0.6804E+06
   6876      1     88     59      0.2763          0.6804E+06
   6877      1     88     60      0.2887          0.6804E+06
   6878      1     88     61      0.2998          0.6804E+06
   6879      1     88     62      0.3118          0.6804E+06
   6880      1     88     63      0.3173          0.6804E+06
   6881      1     88     64      0.3178          0.6804E+06
   6882      1     88     65      0.3156          0.6804E+06
   6883      1     88     66      0.3146          0.6804E+06
   6884      1     88     67      0.3147          0.6804E+06
   6885      1     88     68      0.3162          0.6804E+06
   6886      1     88     69      0.3191          0.6804E+06
   6887      1     88     70      0.3238          0.6804E+06
   6888      1     88     71      0.3264          0.6804E+06
   6889      1     88     72      0.3279          0.6804E+06
   6890      1     88     73      0.3289          0.6804E+06
   6891      1     88     74      0.3288          0.6804E+06
   6892      1     88     75      0.3285          0.6804E+06
   6893      1     88     76      0.3284          0.6804E+06
   6894      1     88     77      0.3286          0.6804E+06
   6895      1     88     78      0.3293          0.6804E+06
   6896      1     88     79      0.3297          0.6804E+06
   6897      1     88     80      0.3296          0.6804E+06
   6898      1     88     81      0.3292          0.6804E+06
   6899      1     88     82      0.3285          0.6804E+06
   6900      1     88     83      0.3275          0.6804E+06
   6901      1     88     84      0.3266          0.6804E+06
   6902      1     88     85      0.3260          0.6804E+06
   6903      1     88     86      0.3256          0.6804E+06
   6904      1     88     87      0.3256          0.6804E+06
   6905      1     89      1      0.9788          0.6804E+06
   6906      1     89      2      0.9734          0.6804E+06
   6907      1     89      3      0.9686          0.6804E+06
   6908      1     89      4      0.9631          0.6804E+06
   6909      1     89      5      0.9575          0.6804E+06
   6910      1     89      6      0.9523          0.6804E+06
   6911      1     89      7      0.9457          0.6804E+06
   6912      1     89      8      0.9381          0.6804E+06
   6913      1     89      9      0.9303          0.6804E+06
   6914      1     89     10      0.9195          0.6804E+06
   6915      1     89     11      0.9077          0.6804E+06
   6916      1     89     12      0.8887          0.6804E+06
   6917      1     89     13      0.8618          0.6804E+06
   6918      1     89     14      0.8333          0.6804E+06
   6919      1     89     15      0.7980          0.6804E+06
   6920      1     89     16      0.7671          0.6804E+06
   6921      1     89     17      0.7356          0.6804E+06
   6922      1     89     18      0.7101          0.6804E+06
   6923      1     89     19      0.6913          0.6804E+06
   6924      1     89     20      0.6689          0.6804E+06
   6925      1     89     21      0.6418          0.6804E+06
   6926      1     89     22      0.6119          0.6804E+06
   6927      1     89     23      0.5701          0.6804E+06
   6928      1     89     24      0.5286          0.6804E+06
   6929      1     89     25      0.4788          0.6804E+06
   6930      1     89     26      0.4288          0.6804E+06
   6931      1     89     27      0.3868          0.6804E+06
   6932      1     89     28      0.3426          0.6804E+06
   6933      1     89     29      0.3037          0.6804E+06
   6934      1     89     30      0.2753          0.6804E+06
   6935      1     89     31      0.2495          0.6804E+06
   6936      1     89     32      0.2314          0.6804E+06
   6937      1     89     33      0.2139          0.6804E+06
   6938      1     89     34      0.2005          0.6804E+06
   6939      1     89     35      0.1911          0.6804E+06
   6940      1     89     36      0.1828          0.6804E+06
   6941      1     89     37      0.1782          0.6804E+06
   6942      1     89     38      0.1789          0.6804E+06
   6943      1     89     39      0.1800          0.6804E+06
   6944      1     89     40      0.1795          0.6804E+06
   6945      1     89     41      0.1821          0.6804E+06
   6946      1     89     42      0.1886          0.6804E+06
   6947      1     89     43      0.1959          0.6804E+06
   6948      1     89     44      0.2050          0.6804E+06
   6949      1     89     45      0.2122          0.6804E+06
   6950      1     89     46      0.2153          0.6804E+06
   6951      1     89     47      0.2153          0.6804E+06
   6952      1     89     48      0.2123          0.6804E+06
   6953      1     89     49      0.2086          0.6804E+06
   6954      1     89     50      0.2041          0.6804E+06
   6955      1     89     51      0.2053          0.6804E+06
   6956      1     89     52      0.2126          0.6804E+06
   6957      1     89     53      0.2234          0.6804E+06
   6958      1     89     54      0.2364          0.6804E+06
   6959      1     89     55      0.2481          0.6804E+06
   6960      1     89     56      0.2582          0.6804E+06
   6961      1     89     57      0.2700          0.6804E+06
   6962      1     89     58      0.2796          0.6804E+06
   6963      1     89     59      0.2877          0.6804E+06
   6964      1     89     60      0.2975          0.6804E+06
   6965      1     89     61      0.3061          0.6804E+06
   6966      1     89     62      0.3147          0.6804E+06
   6967      1     89     63      0.3195          0.6804E+06
   6968      1     89     64      0.3208          0.6804E+06
   6969      1     89     65      0.3200          0.6804E+06
   6970      1     89     66      0.3195          0.6804E+06
   6971      1     89     67      0.3194          0.6804E+06
   6972      1     89     68      0.3205          0.6804E+06
   6973      1     89     69      0.3225          0.6804E+06
   6974      1     89     70      0.3248          0.6804E+06
   6975      1     89     71      0.3277          0.6804E+06
   6976      1     89     72      0.3289          0.6804E+06
   6977      1     89     73      0.3285          0.6804E+06
   6978      1     89     74      0.3274          0.6804E+06
   6979      1     89     75      0.3258          0.6804E+06
   6980      1     89     76      0.3249          0.6804E+06
   6981      1     89     77      0.3253          0.6804E+06
   6982      1     89     78      0.3267          0.6804E+06
   6983      1     89     79      0.3277          0.6804E+06
   6984      1     89     80      0.3281          0.6804E+06
   6985      1     89     81      0.3280          0.6804E+06
   6986      1     89     82      0.3276          0.6804E+06
   6987      1     89     83      0.3269          0.6804E+06
   6988      1     89     84      0.3262          0.6804E+06
   6989      1     89     85      0.3258          0.6804E+06
   6990      1     89     86      0.3255          0.6804E+06
   6991      1     89     87      0.3256          0.6804E+06
   6992      1     89     88      0.3261          0.6804E+06
   6993      1     89     89      0.3270          0.6804E+06
   6994      1     90      1      0.9739          0.6804E+06
   6995      1     90      2      0.9699          0.6804E+06
   6996      1     90      3      0.9659          0.6804E+06
   6997      1     90      4      0.9611          0.6804E+06
   6998      1     90      5      0.9560          0.6804E+06
   6999      1     90      6      0.9509          0.6804E+06
   7000      1     90      7      0.9442          0.6804E+06
   7001      1     90      8      0.9366          0.6804E+06
   7002      1     90      9      0.9287          0.6804E+06
   7003      1     90     10      0.9177          0.6804E+06
   7004      1     90     11      0.9057          0.6804E+06
   7005      1     90     12      0.8879          0.6804E+06
   7006      1     90     13      0.8653          0.6804E+06
   7007      1     90     14      0.8423          0.6804E+06
   7008      1     90     15      0.8140          0.6804E+06
   7009      1     90     16      0.7890          0.6804E+06
   7010      1     90     17      0.7619          0.6804E+06
   7011      1     90     18      0.7371          0.6804E+06
   7012      1     90     19      0.7163          0.6804E+06
   7013      1     90     20      0.6912          0.6804E+06
   7014      1     90     21      0.6620          0.6804E+06
   7015      1     90     22      0.6315          0.6804E+06
   7016      1     90     23      0.5898          0.6804E+06
   7017      1     90     24      0.5492          0.6804E+06
   7018      1     90     25      0.5003          0.6804E+06
   7019      1     90     26      0.4506          0.6804E+06
   7020      1     90     27      0.4083          0.6804E+06
   7021      1     90     28      0.3635          0.6804E+06
   7022      1     90     29      0.3235          0.6804E+06
   7023      1     90     30      0.2953          0.6804E+06
   7024      1     90     31      0.2710          0.6804E+06
   7025      1     90     32      0.2540          0.6804E+06
   7026      1     90     33      0.2382          0.6804E+06
   7027      1     90     34      0.2267          0.6804E+06
   7028      1     90     35      0.2191          0.6804E+06
   7029      1     90     36      0.2127          0.6804E+06
   7030      1     90     37      0.2097          0.6804E+06
   7031      1     90     38      0.2106          0.6804E+06
   7032      1     90     39      0.2137          0.6804E+06
   7033      1     90     40      0.2179          0.6804E+06
   7034      1     90     41      0.2216          0.6804E+06
   7035      1     90     42      0.2263          0.6804E+06
   7036      1     90     43      0.2315          0.6804E+06
   7037      1     90     44      0.2384          0.6804E+06
   7038      1     90     45      0.2435          0.6804E+06
   7039      1     90     46      0.2461          0.6804E+06
   7040      1     90     47      0.2474          0.6804E+06
   7041      1     90     48      0.2468          0.6804E+06
   7042      1     90     49      0.2453          0.6804E+06
   7043      1     90     50      0.2441          0.6804E+06
   7044      1     90     51      0.2455          0.6804E+06
   7045      1     90     52      0.2496          0.6804E+06
   7046      1     90     53      0.2556          0.6804E+06
   7047      1     90     54      0.2638          0.6804E+06
   7048      1     90     55      0.2718          0.6804E+06
   7049      1     90     56      0.2789          0.6804E+06
   7050      1     90     57      0.2874          0.6804E+06
   7051      1     90     58      0.2943          0.6804E+06
   7052      1     90     59      0.2996          0.6804E+06
   7053      1     90     60      0.3058          0.6804E+06
   7054      1     90     61      0.3115          0.6804E+06
   7055      1     90     62      0.3165          0.6804E+06
   7056      1     90     63      0.3203          0.6804E+06
   7057      1     90     64      0.3223          0.6804E+06
   7058      1     90     65      0.3230          0.6804E+06
   7059      1     90     66      0.3234          0.6804E+06
   7060      1     90     67      0.3240          0.6804E+06
   7061      1     90     68      0.3250          0.6804E+06
   7062      1     90     69      0.3260          0.6804E+06
   7063      1     90     70      0.3269          0.6804E+06
   7064      1     90     71      0.3282          0.6804E+06
   7065      1     90     72      0.3284          0.6804E+06
   7066      1     90     73      0.3275          0.6804E+06
   7067      1     90     74      0.3264          0.6804E+06
   7068      1     90     75      0.3236          0.6804E+06
   7069      1     90     76      0.3221          0.6804E+06
   7070      1     90     77      0.3227          0.6804E+06
   7071      1     90     78      0.3248          0.6804E+06
   7072      1     90     79      0.3262          0.6804E+06
   7073      1     90     80      0.3268          0.6804E+06
   7074      1     90     81      0.3270          0.6804E+06
   7075      1     90     82      0.3267          0.6804E+06
   7076      1     90     83      0.3262          0.6804E+06
   7077      1     90     84      0.3256          0.6804E+06
   7078      1     90     85      0.3252          0.6804E+06
   7079      1     90     86      0.3250          0.6804E+06
   7080      1     90     87      0.3252          0.6804E+06
   7081      1     90     88      0.3258          0.6804E+06
   7082      1     90     89      0.3269          0.6804E+06
   7083      1     90     90      0.3285          0.6804E+06
   7084      1     91      1      0.9689          0.6804E+06
   7085      1     91      2      0.9659          0.6804E+06
   7086      1     91      3      0.9626          0.6804E+06
   7087      1     91      4      0.9584          0.6804E+06
   7088      1     91      5      0.9534          0.6804E+06
   7089      1     91      6      0.9484          0.6804E+06
   7090      1     91      7      0.9417          0.6804E+06
   7091      1     91      8      0.9340          0.6804E+06
   7092      1     91      9      0.9260          0.6804E+06
   7093      1     91     10      0.9152          0.6804E+06
   7094      1     91     11      0.9036          0.6804E+06
   7095      1     91     12      0.8874          0.6804E+06
   7096      1     91     13      0.8679          0.6804E+06
   7097      1     91     14      0.8487          0.6804E+06
   7098      1     91     15      0.8256          0.6804E+06
   7099      1     91     16      0.8052          0.6804E+06
   7100      1     91     17      0.7816          0.6804E+06
   7101      1     91     18      0.7580          0.6804E+06
   7102      1     91     19      0.7369          0.6804E+06
   7103      1     91     20      0.7109          0.6804E+06
   7104      1     91     21      0.6811          0.6804E+06
   7105      1     91     22      0.6502          0.6804E+06
   7106      1     91     23      0.6081          0.6804E+06
   7107      1     91     24      0.5674          0.6804E+06
   7108      1     91     25      0.5184          0.6804E+06
   7109      1     91     26      0.4685          0.6804E+06
   7110      1     91     27      0.4259          0.6804E+06
   7111      1     91     28      0.3806          0.6804E+06
   7112      1     91     29      0.3400          0.6804E+06
   7113      1     91     30      0.3121          0.6804E+06
   7114      1     91     31      0.2892          0.6804E+06
   7115      1     91     32      0.2736          0.6804E+06
   7116      1     91     33      0.2599          0.6804E+06
   7117      1     91     34      0.2504          0.6804E+06
   7118      1     91     35      0.2444          0.6804E+06
   7119      1     91     36      0.2399          0.6804E+06
   7120      1     91     37      0.2383          0.6804E+06
   7121      1     91     38      0.2396          0.6804E+06
   7122      1     91     39      0.2443          0.6804E+06
   7123      1     91     40      0.2520          0.6804E+06
   7124      1     91     41      0.2567          0.6804E+06
   7125      1     91     42      0.2604          0.6804E+06
   7126      1     91     43      0.2640          0.6804E+06
   7127      1     91     44      0.2685          0.6804E+06
   7128      1     91     45      0.2719          0.6804E+06
   7129      1     91     46      0.2739          0.6804E+06
   7130      1     91     47      0.2766          0.6804E+06
   7131      1     91     48      0.2786          0.6804E+06
   7132      1     91     49      0.2793          0.6804E+06
   7133      1     91     50      0.2799          0.6804E+06
   7134      1     91     51      0.2810          0.6804E+06
   7135      1     91     52      0.2824          0.6804E+06
   7136      1     91     53      0.2847          0.6804E+06
   7137      1     91     54      0.2888          0.6804E+06
   7138      1     91     55      0.2931          0.6804E+06
   7139      1     91     56      0.2974          0.6804E+06
   7140      1     91     57      0.3030          0.6804E+06
   7141      1     91     58      0.3070          0.6804E+06
   7142      1     91     59      0.3095          0.6804E+06
   7143      1     91     60      0.3125          0.6804E+06
   7144      1     91     61      0.3158          0.6804E+06
   7145      1     91     62      0.3181          0.6804E+06
   7146      1     91     63      0.3209          0.6804E+06
   7147      1     91     64      0.3233          0.6804E+06
   7148      1     91     65      0.3249          0.6804E+06
   7149      1     91     66      0.3261          0.6804E+06
   7150      1     91     67      0.3273          0.6804E+06
   7151      1     91     68      0.3282          0.6804E+06
   7152      1     91     69      0.3286          0.6804E+06
   7153      1     91     70      0.3291          0.6804E+06
   7154      1     91     71      0.3293          0.6804E+06
   7155      1     91     72      0.3290          0.6804E+06
   7156      1     91     73      0.3280          0.6804E+06
   7157      1     91     74      0.3266          0.6804E+06
   7158      1     91     75      0.3243          0.6804E+06
   7159      1     91     76      0.3230          0.6804E+06
   7160      1     91     77      0.3235          0.6804E+06
   7161      1     91     78      0.3249          0.6804E+06
   7162      1     91     79      0.3259          0.6804E+06
   7163      1     91     80      0.3264          0.6804E+06
   7164      1     91     81      0.3265          0.6804E+06
   7165      1     91     82      0.3261          0.6804E+06
   7166      1     91     83      0.3256          0.6804E+06
   7167      1     91     84      0.3249          0.6804E+06
   7168      1     91     85      0.3245          0.6804E+06
   7169      1     91     86      0.3243          0.6804E+06
   7170      1     91     87      0.3246          0.6804E+06
   7171      1     91     88      0.3253          0.6804E+06
   7172      1     91     89      0.3266          0.6804E+06
   7173      1     91     90      0.3282          0.6804E+06
   7174      1     91     91      0.3299          0.6804E+06
   7175      1     91     92      0.3321          0.6804E+06
   7176      1     92      1      0.9627          0.6804E+06
   7177      1     92      2      0.9605          0.6804E+06
   7178      1     92      3      0.9579          0.6804E+06
   7179      1     92      4      0.9542          0.6804E+06
   7180      1     92      5      0.9495          0.6804E+06
   7181      1     92      6      0.9444          0.6804E+06
   7182      1     92      7      0.9378          0.6804E+06
   7183      1     92      8      0.9299          0.6804E+06
   7184      1     92      9      0.9220          0.6804E+06
   7185      1     92     10      0.9115          0.6804E+06
   7186      1     92     11      0.9007          0.6804E+06
   7187      1     92     12      0.8862          0.6804E+06
   7188      1     92     13      0.8697          0.6804E+06
   7189      1     92     14      0.8541          0.6804E+06
   7190      1     92     15      0.8356          0.6804E+06
   7191      1     92     16      0.8195          0.6804E+06
   7192      1     92     17      0.7996          0.6804E+06
   7193      1     92     18      0.7781          0.6804E+06
   7194      1     92     19      0.7577          0.6804E+06
   7195      1     92     20      0.7324          0.6804E+06
   7196      1     92     21      0.7030          0.6804E+06
   7197      1     92     22      0.6722          0.6804E+06
   7198      1     92     23      0.6297          0.6804E+06
   7199      1     92     24      0.5885          0.6804E+06
   7200      1     92     25      0.5389          0.6804E+06
   7201      1     92     26      0.4881          0.6804E+06
   7202      1     92     27      0.4449          0.6804E+06
   7203      1     92     28      0.3993          0.6804E+06
   7204      1     92     29      0.3600          0.6804E+06
   7205      1     92     30      0.3327          0.6804E+06
   7206      1     92     31      0.3104          0.6804E+06
   7207      1     92     32      0.2964          0.6804E+06
   7208      1     92     33      0.2851          0.6804E+06
   7209      1     92     34      0.2779          0.6804E+06
   7210      1     92     35      0.2738          0.6804E+06
   7211      1     92     36      0.2714          0.6804E+06
   7212      1     92     37      0.2714          0.6804E+06
   7213      1     92     38      0.2739          0.6804E+06
   7214      1     92     39      0.2796          0.6804E+06
   7215      1     92     40      0.2885          0.6804E+06
   7216      1     92     41      0.2952          0.6804E+06
   7217      1     92     42      0.2989          0.6804E+06
   7218      1     92     43      0.3008          0.6804E+06
   7219      1     92     44      0.3028          0.6804E+06
   7220      1     92     45      0.3046          0.6804E+06
   7221      1     92     46      0.3067          0.6804E+06
   7222      1     92     47      0.3110          0.6804E+06
   7223      1     92     48      0.3152          0.6804E+06
   7224      1     92     49      0.3181          0.6804E+06
   7225      1     92     50      0.3204          0.6804E+06
   7226      1     92     51      0.3210          0.6804E+06
   7227      1     92     52      0.3190          0.6804E+06
   7228      1     92     53      0.3173          0.6804E+06
   7229      1     92     54      0.3168          0.6804E+06
   7230      1     92     55      0.3168          0.6804E+06
   7231      1     92     56      0.3176          0.6804E+06
   7232      1     92     57      0.3197          0.6804E+06
   7233      1     92     58      0.3200          0.6804E+06
   7234      1     92     59      0.3200          0.6804E+06
   7235      1     92     60      0.3205          0.6804E+06
   7236      1     92     61      0.3210          0.6804E+06
   7237      1     92     62      0.3209          0.6804E+06
   7238      1     92     63      0.3228          0.6804E+06
   7239      1     92     64      0.3253          0.6804E+06
   7240      1     92     65      0.3272          0.6804E+06
   7241      1     92     66      0.3291          0.6804E+06
   7242      1     92     67      0.3303          0.6804E+06
   7243      1     92     68      0.3310          0.6804E+06
   7244      1     92     69      0.3313          0.6804E+06
   7245      1     92     70      0.3317          0.6804E+06
   7246      1     92     71      0.3314          0.6804E+06
   7247      1     92     72      0.3308          0.6804E+06
   7248      1     92     73      0.3298          0.6804E+06
   7249      1     92     74      0.3284          0.6804E+06
   7250      1     92     75      0.3269          0.6804E+06
   7251      1     92     76      0.3260          0.6804E+06
   7252      1     92     77      0.3260          0.6804E+06
   7253      1     92     78      0.3264          0.6804E+06
   7254      1     92     79      0.3267          0.6804E+06
   7255      1     92     80      0.3267          0.6804E+06
   7256      1     92     81      0.3264          0.6804E+06
   7257      1     92     82      0.3257          0.6804E+06
   7258      1     92     83      0.3250          0.6804E+06
   7259      1     92     84      0.3241          0.6804E+06
   7260      1     92     85      0.3235          0.6804E+06
   7261      1     92     86      0.3231          0.6804E+06
   7262      1     92     87      0.3235          0.6804E+06
   7263      1     92     88      0.3244          0.6804E+06
   7264      1     92     89      0.3259          0.6804E+06
   7265      1     92     90      0.3278          0.6804E+06
   7266      1     92     91      0.3296          0.6804E+06
   7267      1     92     92      0.3319          0.6804E+06
   7268      1     92     93      0.3339          0.6804E+06
   7269      1     93      1      0.9559          0.6804E+06
   7270      1     93      2      0.9544          0.6804E+06
   7271      1     93      3      0.9525          0.6804E+06
   7272      1     93      4      0.9491          0.6804E+06
   7273      1     93      5      0.9445          0.6804E+06
   7274      1     93      6      0.9395          0.6804E+06
   7275      1     93      7      0.9328          0.6804E+06
   7276      1     93      8      0.9249          0.6804E+06
   7277      1     93      9      0.9172          0.6804E+06
   7278      1     93     10      0.9072          0.6804E+06
   7279      1     93     11      0.8971          0.6804E+06
   7280      1     93     12      0.8842          0.6804E+06
   7281      1     93     13      0.8700          0.6804E+06
   7282      1     93     14      0.8569          0.6804E+06
   7283      1     93     15      0.8417          0.6804E+06
   7284      1     93     16      0.8285          0.6804E+06
   7285      1     93     17      0.8120          0.6804E+06
   7286      1     93     18      0.7934          0.6804E+06
   7287      1     93     19      0.7755          0.6804E+06
   7288      1     93     20      0.7525          0.6804E+06
   7289      1     93     21      0.7246          0.6804E+06
   7290      1     93     22      0.6946          0.6804E+06
   7291      1     93     23      0.6521          0.6804E+06
   7292      1     93     24      0.6101          0.6804E+06
   7293      1     93     25      0.5593          0.6804E+06
   7294      1     93     26      0.5072          0.6804E+06
   7295      1     93     27      0.4626          0.6804E+06
   7296      1     93     28      0.4159          0.6804E+06
   7297      1     93     29      0.3769          0.6804E+06
   7298      1     93     30      0.3506          0.6804E+06
   7299      1     93     31      0.3302          0.6804E+06
   7300      1     93     32      0.3185          0.6804E+06
   7301      1     93     33      0.3097          0.6804E+06
   7302      1     93     34      0.3048          0.6804E+06
   7303      1     93     35      0.3025          0.6804E+06
   7304      1     93     36      0.3019          0.6804E+06
   7305      1     93     37      0.3036          0.6804E+06
   7306      1     93     38      0.3071          0.6804E+06
   7307      1     93     39      0.3130          0.6804E+06
   7308      1     93     40      0.3204          0.6804E+06
   7309      1     93     41      0.3299          0.6804E+06
   7310      1     93     42      0.3346          0.6804E+06
   7311      1     93     43      0.3353          0.6804E+06
   7312      1     93     44      0.3355          0.6804E+06
   7313      1     93     45      0.3362          0.6804E+06
   7314      1     93     46      0.3385          0.6804E+06
   7315      1     93     47      0.3434          0.6804E+06
   7316      1     93     48      0.3483          0.6804E+06
   7317      1     93     49      0.3538          0.6804E+06
   7318      1     93     50      0.3589          0.6804E+06
   7319      1     93     51      0.3592          0.6804E+06
   7320      1     93     52      0.3522          0.6804E+06
   7321      1     93     53      0.3466          0.6804E+06
   7322      1     93     54      0.3418          0.6804E+06
   7323      1     93     55      0.3380          0.6804E+06
   7324      1     93     56      0.3356          0.6804E+06
   7325      1     93     57      0.3334          0.6804E+06
   7326      1     93     58      0.3311          0.6804E+06
   7327      1     93     59      0.3297          0.6804E+06
   7328      1     93     60      0.3289          0.6804E+06
   7329      1     93     61      0.3280          0.6804E+06
   7330      1     93     62      0.3271          0.6804E+06
   7331      1     93     63      0.3278          0.6804E+06
   7332      1     93     64      0.3291          0.6804E+06
   7333      1     93     65      0.3306          0.6804E+06
   7334      1     93     66      0.3319          0.6804E+06
   7335      1     93     67      0.3330          0.6804E+06
   7336      1     93     68      0.3337          0.6804E+06
   7337      1     93     69      0.3340          0.6804E+06
   7338      1     93     70      0.3342          0.6804E+06
   7339      1     93     71      0.3339          0.6804E+06
   7340      1     93     72      0.3333          0.6804E+06
   7341      1     93     73      0.3325          0.6804E+06
   7342      1     93     74      0.3315          0.6804E+06
   7343      1     93     75      0.3306          0.6804E+06
   7344      1     93     76      0.3297          0.6804E+06
   7345      1     93     77      0.3292          0.6804E+06
   7346      1     93     78      0.3287          0.6804E+06
   7347      1     93     79      0.3281          0.6804E+06
   7348      1     93     80      0.3275          0.6804E+06
   7349      1     93     81      0.3267          0.6804E+06
   7350      1     93     82      0.3256          0.6804E+06
   7351      1     93     83      0.3246          0.6804E+06
   7352      1     93     84      0.3234          0.6804E+06
   7353      1     93     85      0.3224          0.6804E+06
   7354      1     93     86      0.3218          0.6804E+06
   7355      1     93     87      0.3221          0.6804E+06
   7356      1     93     88      0.3232          0.6804E+06
   7357      1     93     89      0.3250          0.6804E+06
   7358      1     93     90      0.3272          0.6804E+06
   7359      1     93     91      0.3292          0.6804E+06
   7360      1     93     92      0.3316          0.6804E+06
   7361      1     93     93      0.3337          0.6804E+06
   7362      1     93     94      0.3360          0.6804E+06
   7363      1     94      1      0.9497          0.6804E+06
   7364      1     94      2      0.9487          0.6804E+06
   7365      1     94      3      0.9471          0.6804E+06
   7366      1     94      4      0.9441          0.6804E+06
   7367      1     94      5      0.9394          0.6804E+06
   7368      1     94      6      0.9342          0.6804E+06
   7369      1     94      7      0.9275          0.6804E+06
   7370      1     94      8      0.9198          0.6804E+06
   7371      1     94      9      0.9122          0.6804E+06
   7372      1     94     10      0.9027          0.6804E+06
   7373      1     94     11      0.8932          0.6804E+06
   7374      1     94     12      0.8813          0.6804E+06
   7375      1     94     13      0.8686          0.6804E+06
   7376      1     94     14      0.8571          0.6804E+06
   7377      1     94     15      0.8437          0.6804E+06
   7378      1     94     16      0.8321          0.6804E+06
   7379      1     94     17      0.8181          0.6804E+06
   7380      1     94     18      0.8030          0.6804E+06
   7381      1     94     19      0.7884          0.6804E+06
   7382      1     94     20      0.7688          0.6804E+06
   7383      1     94     21      0.7437          0.6804E+06
   7384      1     94     22      0.7152          0.6804E+06
   7385      1     94     23      0.6724          0.6804E+06
   7386      1     94     24      0.6295          0.6804E+06
   7387      1     94     25      0.5774          0.6804E+06
   7388      1     94     26      0.5238          0.6804E+06
   7389      1     94     27      0.4776          0.6804E+06
   7390      1     94     28      0.4286          0.6804E+06
   7391      1     94     29      0.3889          0.6804E+06
   7392      1     94     30      0.3637          0.6804E+06
   7393      1     94     31      0.3467          0.6804E+06
   7394      1     94     32      0.3378          0.6804E+06
   7395      1     94     33      0.3315          0.6804E+06
   7396      1     94     34      0.3285          0.6804E+06
   7397      1     94     35      0.3276          0.6804E+06
   7398      1     94     36      0.3281          0.6804E+06
   7399      1     94     37      0.3308          0.6804E+06
   7400      1     94     38      0.3351          0.6804E+06
   7401      1     94     39      0.3412          0.6804E+06
   7402      1     94     40      0.3483          0.6804E+06
   7403      1     94     41      0.3568          0.6804E+06
   7404      1     94     42      0.3610          0.6804E+06
   7405      1     94     43      0.3617          0.6804E+06
   7406      1     94     44      0.3616          0.6804E+06
   7407      1     94     45      0.3620          0.6804E+06
   7408      1     94     46      0.3637          0.6804E+06
   7409      1     94     47      0.3677          0.6804E+06
   7410      1     94     48      0.3726          0.6804E+06
   7411      1     94     49      0.3801          0.6804E+06
   7412      1     94     50      0.3870          0.6804E+06
   7413      1     94     51      0.3869          0.6804E+06
   7414      1     94     52      0.3765          0.6804E+06
   7415      1     94     53      0.3684          0.6804E+06
   7416      1     94     54      0.3607          0.6804E+06
   7417      1     94     55      0.3541          0.6804E+06
   7418      1     94     56      0.3492          0.6804E+06
   7419      1     94     57      0.3444          0.6804E+06
   7420      1     94     58      0.3404          0.6804E+06
   7421      1     94     59      0.3378          0.6804E+06
   7422      1     94     60      0.3359          0.6804E+06
   7423      1     94     61      0.3342          0.6804E+06
   7424      1     94     62      0.3328          0.6804E+06
   7425      1     94     63      0.3326          0.6804E+06
   7426      1     94     64      0.3331          0.6804E+06
   7427      1     94     65      0.3337          0.6804E+06
   7428      1     94     66      0.3346          0.6804E+06
   7429      1     94     67      0.3354          0.6804E+06
   7430      1     94     68      0.3359          0.6804E+06
   7431      1     94     69      0.3361          0.6804E+06
   7432      1     94     70      0.3363          0.6804E+06
   7433      1     94     71      0.3361          0.6804E+06
   7434      1     94     72      0.3357          0.6804E+06
   7435      1     94     73      0.3351          0.6804E+06
   7436      1     94     74      0.3345          0.6804E+06
   7437      1     94     75      0.3338          0.6804E+06
   7438      1     94     76      0.3330          0.6804E+06
   7439      1     94     77      0.3322          0.6804E+06
   7440      1     94     78      0.3310          0.6804E+06
   7441      1     94     79      0.3297          0.6804E+06
   7442      1     94     80      0.3286          0.6804E+06
   7443      1     94     81      0.3272          0.6804E+06
   7444      1     94     82      0.3258          0.6804E+06
   7445      1     94     83      0.3244          0.6804E+06
   7446      1     94     84      0.3229          0.6804E+06
   7447      1     94     85      0.3217          0.6804E+06
   7448      1     94     86      0.3206          0.6804E+06
   7449      1     94     87      0.3210          0.6804E+06
   7450      1     94     88      0.3223          0.6804E+06
   7451      1     94     89      0.3244          0.6804E+06
   7452      1     94     90      0.3268          0.6804E+06
   7453      1     94     91      0.3289          0.6804E+06
   7454      1     94     92      0.3314          0.6804E+06
   7455      1     94     93      0.3335          0.6804E+06
   7456      1     94     94      0.3359          0.6804E+06
   7457      1     94     95      0.3382          0.6804E+06
   7458      1     95      1      0.9422          0.6804E+06
   7459      1     95      2      0.9414          0.6804E+06
   7460      1     95      3      0.9400          0.6804E+06
   7461      1     95      4      0.9371          0.6804E+06
   7462      1     95      5      0.9325          0.6804E+06
   7463      1     95      6      0.9274          0.6804E+06
   7464      1     95      7      0.9208          0.6804E+06
   7465      1     95      8      0.9132          0.6804E+06
   7466      1     95      9      0.9059          0.6804E+06
   7467      1     95     10      0.8967          0.6804E+06
   7468      1     95     11      0.8878          0.6804E+06
   7469      1     95     12      0.8768          0.6804E+06
   7470      1     95     13      0.8652          0.6804E+06
   7471      1     95     14      0.8549          0.6804E+06
   7472      1     95     15      0.8430          0.6804E+06
   7473      1     95     16      0.8330          0.6804E+06
   7474      1     95     17      0.8218          0.6804E+06
   7475      1     95     18      0.8105          0.6804E+06
   7476      1     95     19      0.8000          0.6804E+06
   7477      1     95     20      0.7858          0.6804E+06
   7478      1     95     21      0.7657          0.6804E+06
   7479      1     95     22      0.7398          0.6804E+06
   7480      1     95     23      0.6957          0.6804E+06
   7481      1     95     24      0.6515          0.6804E+06
   7482      1     95     25      0.5984          0.6804E+06
   7483      1     95     26      0.5435          0.6804E+06
   7484      1     95     27      0.4956          0.6804E+06
   7485      1     95     28      0.4432          0.6804E+06
   7486      1     95     29      0.4017          0.6804E+06
   7487      1     95     30      0.3778          0.6804E+06
   7488      1     95     31      0.3667          0.6804E+06
   7489      1     95     32      0.3613          0.6804E+06
   7490      1     95     33      0.3575          0.6804E+06
   7491      1     95     34      0.3560          0.6804E+06
   7492      1     95     35      0.3560          0.6804E+06
   7493      1     95     36      0.3573          0.6804E+06
   7494      1     95     37      0.3605          0.6804E+06
   7495      1     95     38      0.3650          0.6804E+06
   7496      1     95     39      0.3712          0.6804E+06
   7497      1     95     40      0.3777          0.6804E+06
   7498      1     95     41      0.3847          0.6804E+06
   7499      1     95     42      0.3880          0.6804E+06
   7500      1     95     43      0.3881          0.6804E+06
   7501      1     95     44      0.3875          0.6804E+06
   7502      1     95     45      0.3875          0.6804E+06
   7503      1     95     46      0.3888          0.6804E+06
   7504      1     95     47      0.3922          0.6804E+06
   7505      1     95     48      0.3963          0.6804E+06
   7506      1     95     49      0.4018          0.6804E+06
   7507      1     95     50      0.4055          0.6804E+06
   7508      1     95     51      0.4043          0.6804E+06
   7509      1     95     52      0.3957          0.6804E+06
   7510      1     95     53      0.3872          0.6804E+06
   7511      1     95     54      0.3780          0.6804E+06
   7512      1     95     55      0.3691          0.6804E+06
   7513      1     95     56      0.3620          0.6804E+06
   7514      1     95     57      0.3559          0.6804E+06
   7515      1     95     58      0.3505          0.6804E+06
   7516      1     95     59      0.3467          0.6804E+06
   7517      1     95     60      0.3433          0.6804E+06
   7518      1     95     61      0.3408          0.6804E+06
   7519      1     95     62      0.3386          0.6804E+06
   7520      1     95     63      0.3376          0.6804E+06
   7521      1     95     64      0.3375          0.6804E+06
   7522      1     95     65      0.3375          0.6804E+06
   7523      1     95     66      0.3378          0.6804E+06
   7524      1     95     67      0.3380          0.6804E+06
   7525      1     95     68      0.3383          0.6804E+06
   7526      1     95     69      0.3384          0.6804E+06
   7527      1     95     70      0.3385          0.6804E+06
   7528      1     95     71      0.3384          0.6804E+06
   7529      1     95     72      0.3382          0.6804E+06
   7530      1     95     73      0.3380          0.6804E+06
   7531      1     95     74      0.3378          0.6804E+06
   7532      1     95     75      0.3375          0.6804E+06
   7533      1     95     76      0.3367          0.6804E+06
   7534      1     95     77      0.3355          0.6804E+06
   7535      1     95     78      0.3336          0.6804E+06
   7536      1     95     79      0.3317          0.6804E+06
   7537      1     95     80      0.3300          0.6804E+06
   7538      1     95     81      0.3280          0.6804E+06
   7539      1     95     82      0.3262          0.6804E+06
   7540      1     95     83      0.3246          0.6804E+06
   7541      1     95     84      0.3228          0.6804E+06
   7542      1     95     85      0.3213          0.6804E+06
   7543      1     95     86      0.3198          0.6804E+06
   7544      1     95     87      0.3202          0.6804E+06
   7545      1     95     88      0.3217          0.6804E+06
   7546      1     95     89      0.3240          0.6804E+06
   7547      1     95     90      0.3264          0.6804E+06
   7548      1     95     91      0.3286          0.6804E+06
   7549      1     95     92      0.3311          0.6804E+06
   7550      1     95     93      0.3333          0.6804E+06
   7551      1     95     94      0.3357          0.6804E+06
   7552      1     95     95      0.3381          0.6804E+06
   7553      1     96      1      0.9344          0.6804E+06
   7554      1     96      2      0.9335          0.6804E+06
   7555      1     96      3      0.9320          0.6804E+06
   7556      1     96      4      0.9291          0.6804E+06
   7557      1     96      5      0.9246          0.6804E+06
   7558      1     96      6      0.9197          0.6804E+06
   7559      1     96      7      0.9134          0.6804E+06
   7560      1     96      8      0.9060          0.6804E+06
   7561      1     96      9      0.8989          0.6804E+06
   7562      1     96     10      0.8900          0.6804E+06
   7563      1     96     11      0.8815          0.6804E+06
   7564      1     96     12      0.8710          0.6804E+06
   7565      1     96     13      0.8602          0.6804E+06
   7566      1     96     14      0.8505          0.6804E+06
   7567      1     96     15      0.8396          0.6804E+06
   7568      1     96     16      0.8308          0.6804E+06
   7569      1     96     17      0.8220          0.6804E+06
   7570      1     96     18      0.8142          0.6804E+06
   7571      1     96     19      0.8072          0.6804E+06
   7572      1     96     20      0.7978          0.6804E+06
   7573      1     96     21      0.7834          0.6804E+06
   7574      1     96     22      0.7614          0.6804E+06
   7575      1     96     23      0.7161          0.6804E+06
   7576      1     96     24      0.6718          0.6804E+06
   7577      1     96     25      0.6194          0.6804E+06
   7578      1     96     26      0.5651          0.6804E+06
   7579      1     96     27      0.5171          0.6804E+06
   7580      1     96     28      0.4630          0.6804E+06
   7581      1     96     29      0.4201          0.6804E+06
   7582      1     96     30      0.3973          0.6804E+06
   7583      1     96     31      0.3915          0.6804E+06
   7584      1     96     32      0.3882          0.6804E+06
   7585      1     96     33      0.3854          0.6804E+06
   7586      1     96     34      0.3842          0.6804E+06
   7587      1     96     35      0.3842          0.6804E+06
   7588      1     96     36      0.3854          0.6804E+06
   7589      1     96     37      0.3884          0.6804E+06
   7590      1     96     38      0.3926          0.6804E+06
   7591      1     96     39      0.3985          0.6804E+06
   7592      1     96     40      0.4046          0.6804E+06
   7593      1     96     41      0.4106          0.6804E+06
   7594      1     96     42      0.4127          0.6804E+06
   7595      1     96     43      0.4116          0.6804E+06
   7596      1     96     44      0.4096          0.6804E+06
   7597      1     96     45      0.4089          0.6804E+06
   7598      1     96     46      0.4094          0.6804E+06
   7599      1     96     47      0.4117          0.6804E+06
   7600      1     96     48      0.4147          0.6804E+06
   7601      1     96     49      0.4182          0.6804E+06
   7602      1     96     50      0.4196          0.6804E+06
   7603      1     96     51      0.4174          0.6804E+06
   7604      1     96     52      0.4093          0.6804E+06
   7605      1     96     53      0.4006          0.6804E+06
   7606      1     96     54      0.3904          0.6804E+06
   7607      1     96     55      0.3803          0.6804E+06
   7608      1     96     56      0.3727          0.6804E+06
   7609      1     96     57      0.3653          0.6804E+06
   7610      1     96     58      0.3591          0.6804E+06
   7611      1     96     59      0.3544          0.6804E+06
   7612      1     96     60      0.3499          0.6804E+06
   7613      1     96     61      0.3467          0.6804E+06
   7614      1     96     62      0.3438          0.6804E+06
   7615      1     96     63      0.3420          0.6804E+06
   7616      1     96     64      0.3413          0.6804E+06
   7617      1     96     65      0.3410          0.6804E+06
   7618      1     96     66      0.3407          0.6804E+06
   7619      1     96     67      0.3405          0.6804E+06
   7620      1     96     68      0.3405          0.6804E+06
   7621      1     96     69      0.3405          0.6804E+06
   7622      1     96     70      0.3405          0.6804E+06
   7623      1     96     71      0.3404          0.6804E+06
   7624      1     96     72      0.3404          0.6804E+06
   7625      1     96     73      0.3404          0.6804E+06
   7626      1     96     74      0.3405          0.6804E+06
   7627      1     96     75      0.3406          0.6804E+06
   7628      1     96     76      0.3399          0.6804E+06
   7629      1     96     77      0.3382          0.6804E+06
   7630      1     96     78      0.3357          0.6804E+06
   7631      1     96     79      0.3333          0.6804E+06
   7632      1     96     80      0.3312          0.6804E+06
   7633      1     96     81      0.3290          0.6804E+06
   7634      1     96     82      0.3268          0.6804E+06
   7635      1     96     83      0.3250          0.6804E+06
   7636      1     96     84      0.3232          0.6804E+06
   7637      1     96     85      0.3217          0.6804E+06
   7638      1     96     86      0.3206          0.6804E+06
   7639      1     96     87      0.3209          0.6804E+06
   7640      1     96     88      0.3220          0.6804E+06
   7641      1     96     89      0.3241          0.6804E+06
   7642      1     96     90      0.3264          0.6804E+06
   7643      1     96     91      0.3285          0.6804E+06
   7644      1     96     92      0.3309          0.6804E+06
   7645      1     96     93      0.3331          0.6804E+06
   7646      1     96     94      0.3355          0.6804E+06
   7647      1     96     95      0.3377          0.6804E+06
   7648      1     96     96      0.3395          0.6804E+06
   7649      1     97      1      0.9274          0.6804E+06
   7650      1     97      2      0.9264          0.6804E+06
   7651      1     97      3      0.9247          0.6804E+06
   7652      1     97      4      0.9217          0.6804E+06
   7653      1     97      5      0.9173          0.6804E+06
   7654      1     97      6      0.9125          0.6804E+06
   7655      1     97      7      0.9063          0.6804E+06
   7656      1     97      8      0.8991          0.6804E+06
   7657      1     97      9      0.8922          0.6804E+06
   7658      1     97     10      0.8835          0.6804E+06
   7659      1     97     11      0.8753          0.6804E+06
   7660      1     97     12      0.8652          0.6804E+06
   7661      1     97     13      0.8549          0.6804E+06
   7662      1     97     14      0.8456          0.6804E+06
   7663      1     97     15      0.8348          0.6804E+06
   7664      1     97     16      0.8267          0.6804E+06
   7665      1     97     17      0.8195          0.6804E+06
   7666      1     97     18      0.8145          0.6804E+06
   7667      1     97     19      0.8098          0.6804E+06
   7668      1     97     20      0.8023          0.6804E+06
   7669      1     97     21      0.7888          0.6804E+06
   7670      1     97     22      0.7680          0.6804E+06
   7671      1     97     23      0.7275          0.6804E+06
   7672      1     97     24      0.6867          0.6804E+06
   7673      1     97     25      0.6374          0.6804E+06
   7674      1     97     26      0.5863          0.6804E+06
   7675      1     97     27      0.5413          0.6804E+06
   7676      1     97     28      0.4923          0.6804E+06
   7677      1     97     29      0.4532          0.6804E+06
   7678      1     97     30      0.4309          0.6804E+06
   7679      1     97     31      0.4213          0.6804E+06
   7680      1     97     32      0.4162          0.6804E+06
   7681      1     97     33      0.4119          0.6804E+06
   7682      1     97     34      0.4096          0.6804E+06
   7683      1     97     35      0.4088          0.6804E+06
   7684      1     97     36      0.4090          0.6804E+06
   7685      1     97     37      0.4113          0.6804E+06
   7686      1     97     38      0.4148          0.6804E+06
   7687      1     97     39      0.4200          0.6804E+06
   7688      1     97     40      0.4256          0.6804E+06
   7689      1     97     41      0.4308          0.6804E+06
   7690      1     97     42      0.4318          0.6804E+06
   7691      1     97     43      0.4293          0.6804E+06
   7692      1     97     44      0.4260          0.6804E+06
   7693      1     97     45      0.4243          0.6804E+06
   7694      1     97     46      0.4239          0.6804E+06
   7695      1     97     47      0.4250          0.6804E+06
   7696      1     97     48      0.4268          0.6804E+06
   7697      1     97     49      0.4292          0.6804E+06
   7698      1     97     50      0.4297          0.6804E+06
   7699      1     97     51      0.4270          0.6804E+06
   7700      1     97     52      0.4181          0.6804E+06
   7701      1     97     53      0.4087          0.6804E+06
   7702      1     97     54      0.3979          0.6804E+06
   7703      1     97     55      0.3877          0.6804E+06
   7704      1     97     56      0.3799          0.6804E+06
   7705      1     97     57      0.3719          0.6804E+06
   7706      1     97     58      0.3652          0.6804E+06
   7707      1     97     59      0.3601          0.6804E+06
   7708      1     97     60      0.3551          0.6804E+06
   7709      1     97     61      0.3513          0.6804E+06
   7710      1     97     62      0.3479          0.6804E+06
   7711      1     97     63      0.3456          0.6804E+06
   7712      1     97     64      0.3444          0.6804E+06
   7713      1     97     65      0.3436          0.6804E+06
   7714      1     97     66      0.3429          0.6804E+06
   7715      1     97     67      0.3424          0.6804E+06
   7716      1     97     68      0.3422          0.6804E+06
   7717      1     97     69      0.3421          0.6804E+06
   7718      1     97     70      0.3420          0.6804E+06
   7719      1     97     71      0.3419          0.6804E+06
   7720      1     97     72      0.3419          0.6804E+06
   7721      1     97     73      0.3420          0.6804E+06
   7722      1     97     74      0.3421          0.6804E+06
   7723      1     97     75      0.3423          0.6804E+06
   7724      1     97     76      0.3417          0.6804E+06
   7725      1     97     77      0.3397          0.6804E+06
   7726      1     97     78      0.3370          0.6804E+06
   7727      1     97     79      0.3343          0.6804E+06
   7728      1     97     80      0.3321          0.6804E+06
   7729      1     97     81      0.3297          0.6804E+06
   7730      1     97     82      0.3274          0.6804E+06
   7731      1     97     83      0.3256          0.6804E+06
   7732      1     97     84      0.3237          0.6804E+06
   7733      1     97     85      0.3224          0.6804E+06
   7734      1     97     86      0.3216          0.6804E+06
   7735      1     97     87      0.3217          0.6804E+06
   7736      1     97     88      0.3226          0.6804E+06
   7737      1     97     89      0.3243          0.6804E+06
   7738      1     97     90      0.3264          0.6804E+06
   7739      1     97     91      0.3284          0.6804E+06
   7740      1     97     92      0.3308          0.6804E+06
   7741      1     97     93      0.3329          0.6804E+06
   7742      1     97     94      0.3352          0.6804E+06
   7743      1     97     95      0.3373          0.6804E+06
   7744      1     97     96      0.3390          0.6804E+06
   7745      1     97     97      0.3406          0.6804E+06
   7746      1     98      1      0.9196          0.6804E+06
   7747      1     98      2      0.9182          0.6804E+06
   7748      1     98      3      0.9162          0.6804E+06
   7749      1     98      4      0.9130          0.6804E+06
   7750      1     98      5      0.9086          0.6804E+06
   7751      1     98      6      0.9039          0.6804E+06
   7752      1     98      7      0.8978          0.6804E+06
   7753      1     98      8      0.8907          0.6804E+06
   7754      1     98      9      0.8839          0.6804E+06
   7755      1     98     10      0.8756          0.6804E+06
   7756      1     98     11      0.8677          0.6804E+06
   7757      1     98     12      0.8580          0.6804E+06
   7758      1     98     13      0.8481          0.6804E+06
   7759      1     98     14      0.8390          0.6804E+06
   7760      1     98     15      0.8284          0.6804E+06
   7761      1     98     16      0.8207          0.6804E+06
   7762      1     98     17      0.8150          0.6804E+06
   7763      1     98     18      0.8129          0.6804E+06
   7764      1     98     19      0.8101          0.6804E+06
   7765      1     98     20      0.8034          0.6804E+06
   7766      1     98     21      0.7901          0.6804E+06
   7767      1     98     22      0.7705          0.6804E+06
   7768      1     98     23      0.7371          0.6804E+06
   7769      1     98     24      0.7017          0.6804E+06
   7770      1     98     25      0.6577          0.6804E+06
   7771      1     98     26      0.6117          0.6804E+06
   7772      1     98     27      0.5718          0.6804E+06
   7773      1     98     28      0.5301          0.6804E+06
   7774      1     98     29      0.4959          0.6804E+06
   7775      1     98     30      0.4741          0.6804E+06
   7776      1     98     31      0.4599          0.6804E+06
   7777      1     98     32      0.4513          0.6804E+06
   7778      1     98     33      0.4436          0.6804E+06
   7779      1     98     34      0.4386          0.6804E+06
   7780      1     98     35      0.4360          0.6804E+06
   7781      1     98     36      0.4344          0.6804E+06
   7782      1     98     37      0.4350          0.6804E+06
   7783      1     98     38      0.4371          0.6804E+06
   7784      1     98     39      0.4408          0.6804E+06
   7785      1     98     40      0.4448          0.6804E+06
   7786      1     98     41      0.4481          0.6804E+06
   7787      1     98     42      0.4480          0.6804E+06
   7788      1     98     43      0.4451          0.6804E+06
   7789      1     98     44      0.4410          0.6804E+06
   7790      1     98     45      0.4379          0.6804E+06
   7791      1     98     46      0.4363          0.6804E+06
   7792      1     98     47      0.4358          0.6804E+06
   7793      1     98     48      0.4363          0.6804E+06
   7794      1     98     49      0.4374          0.6804E+06
   7795      1     98     50      0.4372          0.6804E+06
   7796      1     98     51      0.4339          0.6804E+06
   7797      1     98     52      0.4242          0.6804E+06
   7798      1     98     53      0.4144          0.6804E+06
   7799      1     98     54      0.4036          0.6804E+06
   7800      1     98     55      0.3936          0.6804E+06
   7801      1     98     56      0.3858          0.6804E+06
   7802      1     98     57      0.3776          0.6804E+06
   7803      1     98     58      0.3704          0.6804E+06
   7804      1     98     59      0.3650          0.6804E+06
   7805      1     98     60      0.3596          0.6804E+06
   7806      1     98     61      0.3556          0.6804E+06
   7807      1     98     62      0.3519          0.6804E+06
   7808      1     98     63      0.3491          0.6804E+06
   7809      1     98     64      0.3474          0.6804E+06
   7810      1     98     65      0.3460          0.6804E+06
   7811      1     98     66      0.3449          0.6804E+06
   7812      1     98     67      0.3442          0.6804E+06
   7813      1     98     68      0.3438          0.6804E+06
   7814      1     98     69      0.3437          0.6804E+06
   7815      1     98     70      0.3435          0.6804E+06
   7816      1     98     71      0.3432          0.6804E+06
   7817      1     98     72      0.3431          0.6804E+06
   7818      1     98     73      0.3431          0.6804E+06
   7819      1     98     74      0.3430          0.6804E+06
   7820      1     98     75      0.3428          0.6804E+06
   7821      1     98     76      0.3418          0.6804E+06
   7822      1     98     77      0.3402          0.6804E+06
   7823      1     98     78      0.3377          0.6804E+06
   7824      1     98     79      0.3351          0.6804E+06
   7825      1     98     80      0.3328          0.6804E+06
   7826      1     98     81      0.3303          0.6804E+06
   7827      1     98     82      0.3280          0.6804E+06
   7828      1     98     83      0.3262          0.6804E+06
   7829      1     98     84      0.3244          0.6804E+06
   7830      1     98     85      0.3231          0.6804E+06
   7831      1     98     86      0.3224          0.6804E+06
   7832      1     98     87      0.3225          0.6804E+06
   7833      1     98     88      0.3232          0.6804E+06
   7834      1     98     89      0.3247          0.6804E+06
   7835      1     98     90      0.3266          0.6804E+06
   7836      1     98     91      0.3284          0.6804E+06
   7837      1     98     92      0.3307          0.6804E+06
   7838      1     98     93      0.3327          0.6804E+06
   7839      1     98     94      0.3349          0.6804E+06
   7840      1     98     95      0.3369          0.6804E+06
   7841      1     98     96      0.3385          0.6804E+06
   7842      1     98     97      0.3400          0.6804E+06
   7843      1     98     98      0.3410          0.6804E+06
   7844      1     99      1      0.9128          0.6804E+06
   7845      1     99      2      0.9111          0.6804E+06
   7846      1     99      3      0.9088          0.6804E+06
   7847      1     99      4      0.9054          0.6804E+06
   7848      1     99      5      0.9008          0.6804E+06
   7849      1     99      6      0.8960          0.6804E+06
   7850      1     99      7      0.8900          0.6804E+06
   7851      1     99      8      0.8831          0.6804E+06
   7852      1     99      9      0.8764          0.6804E+06
   7853      1     99     10      0.8683          0.6804E+06
   7854      1     99     11      0.8607          0.6804E+06
   7855      1     99     12      0.8514          0.6804E+06
   7856      1     99     13      0.8419          0.6804E+06
   7857      1     99     14      0.8333          0.6804E+06
   7858      1     99     15      0.8235          0.6804E+06
   7859      1     99     16      0.8166          0.6804E+06
   7860      1     99     17      0.8120          0.6804E+06
   7861      1     99     18      0.8112          0.6804E+06
   7862      1     99     19      0.8095          0.6804E+06
   7863      1     99     20      0.8038          0.6804E+06
   7864      1     99     21      0.7919          0.6804E+06
   7865      1     99     22      0.7744          0.6804E+06
   7866      1     99     23      0.7453          0.6804E+06
   7867      1     99     24      0.7141          0.6804E+06
   7868      1     99     25      0.6750          0.6804E+06
   7869      1     99     26      0.6339          0.6804E+06
   7870      1     99     27      0.5987          0.6804E+06
   7871      1     99     28      0.5627          0.6804E+06
   7872      1     99     29      0.5323          0.6804E+06
   7873      1     99     30      0.5114          0.6804E+06
   7874      1     99     31      0.4943          0.6804E+06
   7875      1     99     32      0.4823          0.6804E+06
   7876      1     99     33      0.4711          0.6804E+06
   7877      1     99     34      0.4631          0.6804E+06
   7878      1     99     35      0.4583          0.6804E+06
   7879      1     99     36      0.4547          0.6804E+06
   7880      1     99     37      0.4535          0.6804E+06
   7881      1     99     38      0.4540          0.6804E+06
   7882      1     99     39      0.4559          0.6804E+06
   7883      1     99     40      0.4581          0.6804E+06
   7884      1     99     41      0.4595          0.6804E+06
   7885      1     99     42      0.4584          0.6804E+06
   7886      1     99     43      0.4552          0.6804E+06
   7887      1     99     44      0.4509          0.6804E+06
   7888      1     99     45      0.4466          0.6804E+06
   7889      1     99     46      0.4436          0.6804E+06
   7890      1     99     47      0.4416          0.6804E+06
   7891      1     99     48      0.4407          0.6804E+06
   7892      1     99     49      0.4399          0.6804E+06
   7893      1     99     50      0.4379          0.6804E+06
   7894      1     99     51      0.4338          0.6804E+06
   7895      1     99     52      0.4252          0.6804E+06
   7896      1     99     53      0.4165          0.6804E+06
   7897      1     99     54      0.4063          0.6804E+06
   7898      1     99     55      0.3966          0.6804E+06
   7899      1     99     56      0.3890          0.6804E+06
   7900      1     99     57      0.3807          0.6804E+06
   7901      1     99     58      0.3735          0.6804E+06
   7902      1     99     59      0.3680          0.6804E+06
   7903      1     99     60      0.3625          0.6804E+06
   7904      1     99     61      0.3583          0.6804E+06
   7905      1     99     62      0.3545          0.6804E+06
   7906      1     99     63      0.3514          0.6804E+06
   7907      1     99     64      0.3494          0.6804E+06
   7908      1     99     65      0.3476          0.6804E+06
   7909      1     99     66      0.3463          0.6804E+06
   7910      1     99     67      0.3455          0.6804E+06
   7911      1     99     68      0.3449          0.6804E+06
   7912      1     99     69      0.3446          0.6804E+06
   7913      1     99     70      0.3443          0.6804E+06
   7914      1     99     71      0.3441          0.6804E+06
   7915      1     99     72      0.3439          0.6804E+06
   7916      1     99     73      0.3437          0.6804E+06
   7917      1     99     74      0.3434          0.6804E+06
   7918      1     99     75      0.3428          0.6804E+06
   7919      1     99     76      0.3417          0.6804E+06
   7920      1     99     77      0.3402          0.6804E+06
   7921      1     99     78      0.3379          0.6804E+06
   7922      1     99     79      0.3354          0.6804E+06
   7923      1     99     80      0.3332          0.6804E+06
   7924      1     99     81      0.3307          0.6804E+06
   7925      1     99     82      0.3284          0.6804E+06
   7926      1     99     83      0.3266          0.6804E+06
   7927      1     99     84      0.3248          0.6804E+06
   7928      1     99     85      0.3236          0.6804E+06
   7929      1     99     86      0.3229          0.6804E+06
   7930      1     99     87      0.3230          0.6804E+06
   7931      1     99     88      0.3236          0.6804E+06
   7932      1     99     89      0.3249          0.6804E+06
   7933      1     99     90      0.3267          0.6804E+06
   7934      1     99     91      0.3285          0.6804E+06
   7935      1     99     92      0.3307          0.6804E+06
   7936      1     99     93      0.3326          0.6804E+06
   7937      1     99     94      0.3347          0.6804E+06
   7938      1     99     95      0.3366          0.6804E+06
   7939      1     99     96      0.3381          0.6804E+06
   7940      1     99     97      0.3395          0.6804E+06
   7941      1     99     98      0.3405          0.6804E+06
   7942      1     99     99      0.3413          0.6804E+06
   7943      1    100      1      0.9051          0.6804E+06
   7944      1    100      2      0.9029          0.6804E+06
   7945      1    100      3      0.9002          0.6804E+06
   7946      1    100      4      0.8965          0.6804E+06
   7947      1    100      5      0.8917          0.6804E+06
   7948      1    100      6      0.8869          0.6804E+06
   7949      1    100      7      0.8809          0.6804E+06
   7950      1    100      8      0.8741          0.6804E+06
   7951      1    100      9      0.8676          0.6804E+06
   7952      1    100     10      0.8597          0.6804E+06
   7953      1    100     11      0.8523          0.6804E+06
   7954      1    100     12      0.8435          0.6804E+06
   7955      1    100     13      0.8347          0.6804E+06
   7956      1    100     14      0.8270          0.6804E+06
   7957      1    100     15      0.8188          0.6804E+06
   7958      1    100     16      0.8135          0.6804E+06
   7959      1    100     17      0.8102          0.6804E+06
   7960      1    100     18      0.8098          0.6804E+06
   7961      1    100     19      0.8091          0.6804E+06
   7962      1    100     20      0.8053          0.6804E+06
   7963      1    100     21      0.7961          0.6804E+06
   7964      1    100     22      0.7815          0.6804E+06
   7965      1    100     23      0.7559          0.6804E+06
   7966      1    100     24      0.7282          0.6804E+06
   7967      1    100     25      0.6935          0.6804E+06
   7968      1    100     26      0.6575          0.6804E+06
   7969      1    100     27      0.6270          0.6804E+06
   7970      1    100     28      0.5962          0.6804E+06
   7971      1    100     29      0.5696          0.6804E+06
   7972      1    100     30      0.5503          0.6804E+06
   7973      1    100     31      0.5315          0.6804E+06
   7974      1    100     32      0.5162          0.6804E+06
   7975      1    100     33      0.5008          0.6804E+06
   7976      1    100     34      0.4891          0.6804E+06
   7977      1    100     35      0.4816          0.6804E+06
   7978      1    100     36      0.4754          0.6804E+06
   7979      1    100     37      0.4719          0.6804E+06
   7980      1    100     38      0.4705          0.6804E+06
   7981      1    100     39      0.4703          0.6804E+06
   7982      1    100     40      0.4706          0.6804E+06
   7983      1    100     41      0.4703          0.6804E+06
   7984      1    100     42      0.4678          0.6804E+06
   7985      1    100     43      0.4639          0.6804E+06
   7986      1    100     44      0.4587          0.6804E+06
   7987      1    100     45      0.4532          0.6804E+06
   7988      1    100     46      0.4488          0.6804E+06
   7989      1    100     47      0.4447          0.6804E+06
   7990      1    100     48      0.4420          0.6804E+06
   7991      1    100     49      0.4390          0.6804E+06
   7992      1    100     50      0.4351          0.6804E+06
   7993      1    100     51      0.4303          0.6804E+06
   7994      1    100     52      0.4228          0.6804E+06
   7995      1    100     53      0.4154          0.6804E+06
   7996      1    100     54      0.4066          0.6804E+06
   7997      1    100     55      0.3979          0.6804E+06
   7998      1    100     56      0.3905          0.6804E+06
   7999      1    100     57      0.3826          0.6804E+06
   8000      1    100     58      0.3756          0.6804E+06
   8001      1    100     59      0.3701          0.6804E+06
   8002      1    100     60      0.3645          0.6804E+06
   8003      1    100     61      0.3604          0.6804E+06
   8004      1    100     62      0.3564          0.6804E+06
   8005      1    100     63      0.3531          0.6804E+06
   8006      1    100     64      0.3509          0.6804E+06
   8007      1    100     65      0.3489          0.6804E+06
   8008      1    100     66      0.3474          0.6804E+06
   8009      1    100     67      0.3465          0.6804E+06
   8010      1    100     68      0.3457          0.6804E+06
   8011      1    100     69      0.3452          0.6804E+06
   8012      1    100     70      0.3449          0.6804E+06
   8013      1    100     71      0.3446          0.6804E+06
   8014      1    100     72      0.3444          0.6804E+06
   8015      1    100     73      0.3440          0.6804E+06
   8016      1    100     74      0.3435          0.6804E+06
   8017      1    100     75      0.3428          0.6804E+06
   8018      1    100     76      0.3416          0.6804E+06
   8019      1    100     77      0.3401          0.6804E+06
   8020      1    100     78      0.3380          0.6804E+06
   8021      1    100     79      0.3356          0.6804E+06
   8022      1    100     80      0.3335          0.6804E+06
   8023      1    100     81      0.3310          0.6804E+06
   8024      1    100     82      0.3287          0.6804E+06
   8025      1    100     83      0.3268          0.6804E+06
   8026      1    100     84      0.3251          0.6804E+06
   8027      1    100     85      0.3239          0.6804E+06
   8028      1    100     86      0.3232          0.6804E+06
   8029      1    100     87      0.3233          0.6804E+06
   8030      1    100     88      0.3238          0.6804E+06
   8031      1    100     89      0.3251          0.6804E+06
   8032      1    100     90      0.3268          0.6804E+06
   8033      1    100     91      0.3286          0.6804E+06
   8034      1    100     92      0.3307          0.6804E+06
   8035      1    100     93      0.3325          0.6804E+06
   8036      1    100     94      0.3346          0.6804E+06
   8037      1    100     95      0.3365          0.6804E+06
   8038      1    100     96      0.3379          0.6804E+06
   8039      1    100     97      0.3392          0.6804E+06
   8040      1    100     98      0.3400          0.6804E+06
   8041      1    100     99      0.3406          0.6804E+06
   8042      1    100    100      0.3410          0.6804E+06

   8042 GHB CELLS



                           RECHARGE
 READING ON UNIT   19 WITH FORMAT: (100E15.6)          
 
 SOLVING FOR HEAD 

 NO OUTPUT CONTROL FOR STRESS PERIOD    3   TIME STEP    1
 SOLVING FOR ZETA FOR LAYER     1 ZONE     2
 SOLVING FOR ZETA FOR LAYER     2 ZONE     2
 SOLVING FOR ZETA FOR LAYER     3 ZONE     2
 
 SOLVING FOR HEAD 

 NO OUTPUT CONTROL FOR STRESS PERIOD    3   TIME STEP    2
 SOLVING FOR ZETA FOR LAYER     1 ZONE     2
 SOLVING FOR ZETA FOR LAYER     2 ZONE     2
 SOLVING FOR ZETA FOR LAYER     3 ZONE     2
 
 SOLVING FOR HEAD 

 NO OUTPUT CONTROL FOR STRESS PERIOD    3   TIME STEP    3
 SOLVING FOR ZETA FOR LAYER     1 ZONE     2
 SOLVING FOR ZETA FOR LAYER     2 ZONE     2
 SOLVING FOR ZETA FOR LAYER     3 ZONE     2
 
 SOLVING FOR HEAD 

 NO OUTPUT CONTROL FOR STRESS PERIOD    3   TIME STEP    4
 SOLVING FOR ZETA FOR LAYER     1 ZONE     2
 SOLVING FOR ZETA FOR LAYER     2 ZONE     2
 SOLVING FOR ZETA FOR LAYER     3 ZONE     2
 
 SOLVING FOR HEAD 

 NO OUTPUT CONTROL FOR STRESS PERIOD    3   TIME STEP    5
 SOLVING FOR ZETA FOR LAYER     1 ZONE     2
 SOLVING FOR ZETA FOR LAYER     2 ZONE     2
 SOLVING FOR ZETA FOR LAYER     3 ZONE     2
 
 SOLVING FOR HEAD 

 NO OUTPUT CONTROL FOR STRESS PERIOD    3   TIME STEP    6
 SOLVING FOR ZETA FOR LAYER     1 ZONE     2
 SOLVING FOR ZETA FOR LAYER     2 ZONE     2
 SOLVING FOR ZETA FOR LAYER     3 ZONE     2
 
 SOLVING FOR HEAD 

 NO OUTPUT CONTROL FOR STRESS PERIOD    3   TIME STEP    7
 SOLVING FOR ZETA FOR LAYER     1 ZONE     2
 SOLVING FOR ZETA FOR LAYER     2 ZONE     2
 SOLVING FOR ZETA FOR LAYER     3 ZONE     2
 
 SOLVING FOR HEAD 

 NO OUTPUT CONTROL FOR STRESS PERIOD    3   TIME STEP    8
 SOLVING FOR ZETA FOR LAYER     1 ZONE     2
 SOLVING FOR ZETA FOR LAYER     2 ZONE     2
 SOLVING FOR ZETA FOR LAYER     3 ZONE     2
 
 SOLVING FOR HEAD 

 NO OUTPUT CONTROL FOR STRESS PERIOD    3   TIME STEP    9
 SOLVING FOR ZETA FOR LAYER     1 ZONE     2
 SOLVING FOR ZETA FOR LAYER     2 ZONE     2
 SOLVING FOR ZETA FOR LAYER     3 ZONE     2
 
 SOLVING FOR HEAD 

 NO OUTPUT CONTROL FOR STRESS PERIOD    3   TIME STEP   10
 SOLVING FOR ZETA FOR LAYER     1 ZONE     2
 SOLVING FOR ZETA FOR LAYER     2 ZONE     2
 SOLVING FOR ZETA FOR LAYER     3 ZONE     2
 
 SOLVING FOR HEAD 

 NO OUTPUT CONTROL FOR STRESS PERIOD    3   TIME STEP   11
 SOLVING FOR ZETA FOR LAYER     1 ZONE     2
 SOLVING FOR ZETA FOR LAYER     2 ZONE     2
 SOLVING FOR ZETA FOR LAYER     3 ZONE     2
 
 SOLVING FOR HEAD 

 NO OUTPUT CONTROL FOR STRESS PERIOD    3   TIME STEP   12
 SOLVING FOR ZETA FOR LAYER     1 ZONE     2
 SOLVING FOR ZETA FOR LAYER     2 ZONE     2
 SOLVING FOR ZETA FOR LAYER     3 ZONE     2
 
 SOLVING FOR HEAD 

 NO OUTPUT CONTROL FOR STRESS PERIOD    3   TIME STEP   13
 SOLVING FOR ZETA FOR LAYER     1 ZONE     2
 SOLVING FOR ZETA FOR LAYER     2 ZONE     2
 SOLVING FOR ZETA FOR LAYER     3 ZONE     2
 
 SOLVING FOR HEAD 

 NO OUTPUT CONTROL FOR STRESS PERIOD    3   TIME STEP   14
 SOLVING FOR ZETA FOR LAYER     1 ZONE     2
 SOLVING FOR ZETA FOR LAYER     2 ZONE     2
 SOLVING FOR ZETA FOR LAYER     3 ZONE     2
 
 SOLVING FOR HEAD 

 NO OUTPUT CONTROL FOR STRESS PERIOD    3   TIME STEP   15
 SOLVING FOR ZETA FOR LAYER     1 ZONE     2
 SOLVING FOR ZETA FOR LAYER     2 ZONE     2
 SOLVING FOR ZETA FOR LAYER     3 ZONE     2
 
 SOLVING FOR HEAD 

 NO OUTPUT CONTROL FOR STRESS PERIOD    3   TIME STEP   16
 SOLVING FOR ZETA FOR LAYER     1 ZONE     2
 SOLVING FOR ZETA FOR LAYER     2 ZONE     2
 SOLVING FOR ZETA FOR LAYER     3 ZONE     2
 
 SOLVING FOR HEAD 

 NO OUTPUT CONTROL FOR STRESS PERIOD    3   TIME STEP   17
 SOLVING FOR ZETA FOR LAYER     1 ZONE     2
 SOLVING FOR ZETA FOR LAYER     2 ZONE     2
 SOLVING FOR ZETA FOR LAYER     3 ZONE     2
 
 SOLVING FOR HEAD 

 NO OUTPUT CONTROL FOR STRESS PERIOD    3   TIME STEP   18
 SOLVING FOR ZETA FOR LAYER     1 ZONE     2
 SOLVING FOR ZETA FOR LAYER     2 ZONE     2
 SOLVING FOR ZETA FOR LAYER     3 ZONE     2
 
 SOLVING FOR HEAD 

 NO OUTPUT CONTROL FOR STRESS PERIOD    3   TIME STEP   19
 SOLVING FOR ZETA FOR LAYER     1 ZONE     2
 SOLVING FOR ZETA FOR LAYER     2 ZONE     2
 SOLVING FOR ZETA FOR LAYER     3 ZONE     2
 
 SOLVING FOR HEAD 

 NO OUTPUT CONTROL FOR STRESS PERIOD    3   TIME STEP   20
 SOLVING FOR ZETA FOR LAYER     1 ZONE     2
 SOLVING FOR ZETA FOR LAYER     2 ZONE     2
 SOLVING FOR ZETA FOR LAYER     3 ZONE     2
 
 SOLVING FOR HEAD 

 NO OUTPUT CONTROL FOR STRESS PERIOD    3   TIME STEP   21
 SOLVING FOR ZETA FOR LAYER     1 ZONE     2
 SOLVING FOR ZETA FOR LAYER     2 ZONE     2
 SOLVING FOR ZETA FOR LAYER     3 ZONE     2
 
 SOLVING FOR HEAD 

 NO OUTPUT CONTROL FOR STRESS PERIOD    3   TIME STEP   22
 SOLVING FOR ZETA FOR LAYER     1 ZONE     2
 SOLVING FOR ZETA FOR LAYER     2 ZONE     2
 SOLVING FOR ZETA FOR LAYER     3 ZONE     2
 
 SOLVING FOR HEAD 

 NO OUTPUT CONTROL FOR STRESS PERIOD    3   TIME STEP   23
 SOLVING FOR ZETA FOR LAYER     1 ZONE     2
 SOLVING FOR ZETA FOR LAYER     2 ZONE     2
 SOLVING FOR ZETA FOR LAYER     3 ZONE     2
 
 SOLVING FOR HEAD 

 NO OUTPUT CONTROL FOR STRESS PERIOD    3   TIME STEP   24
 SOLVING FOR ZETA FOR LAYER     1 ZONE     2
 SOLVING FOR ZETA FOR LAYER     2 ZONE     2
 SOLVING FOR ZETA FOR LAYER     3 ZONE     2
 
 SOLVING FOR HEAD 

 NO OUTPUT CONTROL FOR STRESS PERIOD    3   TIME STEP   25
 SOLVING FOR ZETA FOR LAYER     1 ZONE     2
 SOLVING FOR ZETA FOR LAYER     2 ZONE     2
 SOLVING FOR ZETA FOR LAYER     3 ZONE     2
 
 SOLVING FOR HEAD 

 NO OUTPUT CONTROL FOR STRESS PERIOD    3   TIME STEP   26
 SOLVING FOR ZETA FOR LAYER     1 ZONE     2
 SOLVING FOR ZETA FOR LAYER     2 ZONE     2
 SOLVING FOR ZETA FOR LAYER     3 ZONE     2
 
 SOLVING FOR HEAD 

 NO OUTPUT CONTROL FOR STRESS PERIOD    3   TIME STEP   27
 SOLVING FOR ZETA FOR LAYER     1 ZONE     2
 SOLVING FOR ZETA FOR LAYER     2 ZONE     2
 SOLVING FOR ZETA FOR LAYER     3 ZONE     2
 
 SOLVING FOR HEAD 

 NO OUTPUT CONTROL FOR STRESS PERIOD    3   TIME STEP   28
 SOLVING FOR ZETA FOR LAYER     1 ZONE     2
 SOLVING FOR ZETA FOR LAYER     2 ZONE     2
 SOLVING FOR ZETA FOR LAYER     3 ZONE     2
 
 SOLVING FOR HEAD 

 NO OUTPUT CONTROL FOR STRESS PERIOD    3   TIME STEP   29
 SOLVING FOR ZETA FOR LAYER     1 ZONE     2
 SOLVING FOR ZETA FOR LAYER     2 ZONE     2
 SOLVING FOR ZETA FOR LAYER     3 ZONE     2
 
 SOLVING FOR HEAD 

 NO OUTPUT CONTROL FOR STRESS PERIOD    3   TIME STEP   30
 SOLVING FOR ZETA FOR LAYER     1 ZONE     2
 SOLVING FOR ZETA FOR LAYER     2 ZONE     2
 SOLVING FOR ZETA FOR LAYER     3 ZONE     2
 
 SOLVING FOR HEAD 

 NO OUTPUT CONTROL FOR STRESS PERIOD    3   TIME STEP   31
 SOLVING FOR ZETA FOR LAYER     1 ZONE     2
 SOLVING FOR ZETA FOR LAYER     2 ZONE     2
 SOLVING FOR ZETA FOR LAYER     3 ZONE     2
 
 SOLVING FOR HEAD 

 NO OUTPUT CONTROL FOR STRESS PERIOD    3   TIME STEP   32
 SOLVING FOR ZETA FOR LAYER     1 ZONE     2
 SOLVING FOR ZETA FOR LAYER     2 ZONE     2
 SOLVING FOR ZETA FOR LAYER     3 ZONE     2
 
 SOLVING FOR HEAD 

 NO OUTPUT CONTROL FOR STRESS PERIOD    3   TIME STEP   33
 SOLVING FOR ZETA FOR LAYER     1 ZONE     2
 SOLVING FOR ZETA FOR LAYER     2 ZONE     2
 SOLVING FOR ZETA FOR LAYER     3 ZONE     2
 
 SOLVING FOR HEAD 

 NO OUTPUT CONTROL FOR STRESS PERIOD    3   TIME STEP   34
 SOLVING FOR ZETA FOR LAYER     1 ZONE     2
 SOLVING FOR ZETA FOR LAYER     2 ZONE     2
 SOLVING FOR ZETA FOR LAYER     3 ZONE     2
 
 SOLVING FOR HEAD 

 NO OUTPUT CONTROL FOR STRESS PERIOD    3   TIME STEP   35
 SOLVING FOR ZETA FOR LAYER     1 ZONE     2
 SOLVING FOR ZETA FOR LAYER     2 ZONE     2
 SOLVING FOR ZETA FOR LAYER     3 ZONE     2
 
 SOLVING FOR HEAD 

 NO OUTPUT CONTROL FOR STRESS PERIOD    3   TIME STEP   36
 SOLVING FOR ZETA FOR LAYER     1 ZONE     2
 SOLVING FOR ZETA FOR LAYER     2 ZONE     2
 SOLVING FOR ZETA FOR LAYER     3 ZONE     2
 
 SOLVING FOR HEAD 

 NO OUTPUT CONTROL FOR STRESS PERIOD    3   TIME STEP   37
 SOLVING FOR ZETA FOR LAYER     1 ZONE     2
 SOLVING FOR ZETA FOR LAYER     2 ZONE     2
 SOLVING FOR ZETA FOR LAYER     3 ZONE     2
 
 SOLVING FOR HEAD 

 NO OUTPUT CONTROL FOR STRESS PERIOD    3   TIME STEP   38
 SOLVING FOR ZETA FOR LAYER     1 ZONE     2
 SOLVING FOR ZETA FOR LAYER     2 ZONE     2
 SOLVING FOR ZETA FOR LAYER     3 ZONE     2
 
 SOLVING FOR HEAD 

 NO OUTPUT CONTROL FOR STRESS PERIOD    3   TIME STEP   39
 SOLVING FOR ZETA FOR LAYER     1 ZONE     2
 SOLVING FOR ZETA FOR LAYER     2 ZONE     2
 SOLVING FOR ZETA FOR LAYER     3 ZONE     2
 
 SOLVING FOR HEAD 

 NO OUTPUT CONTROL FOR STRESS PERIOD    3   TIME STEP   40
 SOLVING FOR ZETA FOR LAYER     1 ZONE     2
 SOLVING FOR ZETA FOR LAYER     2 ZONE     2
 SOLVING FOR ZETA FOR LAYER     3 ZONE     2
 
 SOLVING FOR HEAD 

 NO OUTPUT CONTROL FOR STRESS PERIOD    3   TIME STEP   41
 SOLVING FOR ZETA FOR LAYER     1 ZONE     2
 SOLVING FOR ZETA FOR LAYER     2 ZONE     2
 SOLVING FOR ZETA FOR LAYER     3 ZONE     2
 
 SOLVING FOR HEAD 

 NO OUTPUT CONTROL FOR STRESS PERIOD    3   TIME STEP   42
 SOLVING FOR ZETA FOR LAYER     1 ZONE     2
 SOLVING FOR ZETA FOR LAYER     2 ZONE     2
 SOLVING FOR ZETA FOR LAYER     3 ZONE     2
 
 SOLVING FOR HEAD 

 NO OUTPUT CONTROL FOR STRESS PERIOD    3   TIME STEP   43
 SOLVING FOR ZETA FOR LAYER     1 ZONE     2
 SOLVING FOR ZETA FOR LAYER     2 ZONE     2
 SOLVING FOR ZETA FOR LAYER     3 ZONE     2
 
 SOLVING FOR HEAD 

 NO OUTPUT CONTROL FOR STRESS PERIOD    3   TIME STEP   44
 SOLVING FOR ZETA FOR LAYER     1 ZONE     2
 SOLVING FOR ZETA FOR LAYER     2 ZONE     2
 SOLVING FOR ZETA FOR LAYER     3 ZONE     2
 
 SOLVING FOR HEAD 

 NO OUTPUT CONTROL FOR STRESS PERIOD    3   TIME STEP   45
 SOLVING FOR ZETA FOR LAYER     1 ZONE     2
 SOLVING FOR ZETA FOR LAYER     2 ZONE     2
 SOLVING FOR ZETA FOR LAYER     3 ZONE     2
 
 SOLVING FOR HEAD 

 NO OUTPUT CONTROL FOR STRESS PERIOD    3   TIME STEP   46
 SOLVING FOR ZETA FOR LAYER     1 ZONE     2
 SOLVING FOR ZETA FOR LAYER     2 ZONE     2
 SOLVING FOR ZETA FOR LAYER     3 ZONE     2
 
 SOLVING FOR HEAD 

 NO OUTPUT CONTROL FOR STRESS PERIOD    3   TIME STEP   47
 SOLVING FOR ZETA FOR LAYER     1 ZONE     2
 SOLVING FOR ZETA FOR LAYER     2 ZONE     2
 SOLVING FOR ZETA FOR LAYER     3 ZONE     2
 
 SOLVING FOR HEAD 

 NO OUTPUT CONTROL FOR STRESS PERIOD    3   TIME STEP   48
 SOLVING FOR ZETA FOR LAYER     1 ZONE     2
 SOLVING FOR ZETA FOR LAYER     2 ZONE     2
 SOLVING FOR ZETA FOR LAYER     3 ZONE     2
 
 SOLVING FOR HEAD 

 NO OUTPUT CONTROL FOR STRESS PERIOD    3   TIME STEP   49
 SOLVING FOR ZETA FOR LAYER     1 ZONE     2
 SOLVING FOR ZETA FOR LAYER     2 ZONE     2
 SOLVING FOR ZETA FOR LAYER     3 ZONE     2
 
 SOLVING FOR HEAD 

 NO OUTPUT CONTROL FOR STRESS PERIOD    3   TIME STEP   50
 SOLVING FOR ZETA FOR LAYER     1 ZONE     2
 SOLVING FOR ZETA FOR LAYER     2 ZONE     2
 SOLVING FOR ZETA FOR LAYER     3 ZONE     2
 
 SOLVING FOR HEAD 

 NO OUTPUT CONTROL FOR STRESS PERIOD    3   TIME STEP   51
 SOLVING FOR ZETA FOR LAYER     1 ZONE     2
 SOLVING FOR ZETA FOR LAYER     2 ZONE     2
 SOLVING FOR ZETA FOR LAYER     3 ZONE     2
 
 SOLVING FOR HEAD 

 NO OUTPUT CONTROL FOR STRESS PERIOD    3   TIME STEP   52
 SOLVING FOR ZETA FOR LAYER     1 ZONE     2
 SOLVING FOR ZETA FOR LAYER     2 ZONE     2
 SOLVING FOR ZETA FOR LAYER     3 ZONE     2
 
 SOLVING FOR HEAD 

 NO OUTPUT CONTROL FOR STRESS PERIOD    3   TIME STEP   53
 SOLVING FOR ZETA FOR LAYER     1 ZONE     2
 SOLVING FOR ZETA FOR LAYER     2 ZONE     2
 SOLVING FOR ZETA FOR LAYER     3 ZONE     2
 
 SOLVING FOR HEAD 

 NO OUTPUT CONTROL FOR STRESS PERIOD    3   TIME STEP   54
 SOLVING FOR ZETA FOR LAYER     1 ZONE     2
 SOLVING FOR ZETA FOR LAYER     2 ZONE     2
 SOLVING FOR ZETA FOR LAYER     3 ZONE     2
 
 SOLVING FOR HEAD 

 NO OUTPUT CONTROL FOR STRESS PERIOD    3   TIME STEP   55
 SOLVING FOR ZETA FOR LAYER     1 ZONE     2
 SOLVING FOR ZETA FOR LAYER     2 ZONE     2
 SOLVING FOR ZETA FOR LAYER     3 ZONE     2
 
 SOLVING FOR HEAD 

 NO OUTPUT CONTROL FOR STRESS PERIOD    3   TIME STEP   56
 SOLVING FOR ZETA FOR LAYER     1 ZONE     2
 SOLVING FOR ZETA FOR LAYER     2 ZONE     2
 SOLVING FOR ZETA FOR LAYER     3 ZONE     2
 
 SOLVING FOR HEAD 

 NO OUTPUT CONTROL FOR STRESS PERIOD    3   TIME STEP   57
 SOLVING FOR ZETA FOR LAYER     1 ZONE     2
 SOLVING FOR ZETA FOR LAYER     2 ZONE     2
 SOLVING FOR ZETA FOR LAYER     3 ZONE     2
 
 SOLVING FOR HEAD 

 NO OUTPUT CONTROL FOR STRESS PERIOD    3   TIME STEP   58
 SOLVING FOR ZETA FOR LAYER     1 ZONE     2
 SOLVING FOR ZETA FOR LAYER     2 ZONE     2
 SOLVING FOR ZETA FOR LAYER     3 ZONE     2
 
 SOLVING FOR HEAD 

 NO OUTPUT CONTROL FOR STRESS PERIOD    3   TIME STEP   59
 SOLVING FOR ZETA FOR LAYER     1 ZONE     2
 SOLVING FOR ZETA FOR LAYER     2 ZONE     2
 SOLVING FOR ZETA FOR LAYER     3 ZONE     2
 
 SOLVING FOR HEAD 

 NO OUTPUT CONTROL FOR STRESS PERIOD    3   TIME STEP   60
 SOLVING FOR ZETA FOR LAYER     1 ZONE     2
 SOLVING FOR ZETA FOR LAYER     2 ZONE     2
 SOLVING FOR ZETA FOR LAYER     3 ZONE     2
 
 SOLVING FOR HEAD 

 NO OUTPUT CONTROL FOR STRESS PERIOD    3   TIME STEP   61
 SOLVING FOR ZETA FOR LAYER     1 ZONE     2
 SOLVING FOR ZETA FOR LAYER     2 ZONE     2
 SOLVING FOR ZETA FOR LAYER     3 ZONE     2
 
 SOLVING FOR HEAD 

 NO OUTPUT CONTROL FOR STRESS PERIOD    3   TIME STEP   62
 SOLVING FOR ZETA FOR LAYER     1 ZONE     2
 SOLVING FOR ZETA FOR LAYER     2 ZONE     2
 SOLVING FOR ZETA FOR LAYER     3 ZONE     2
 
 SOLVING FOR HEAD 

 NO OUTPUT CONTROL FOR STRESS PERIOD    3   TIME STEP   63
 SOLVING FOR ZETA FOR LAYER     1 ZONE     2
 SOLVING FOR ZETA FOR LAYER     2 ZONE     2
 SOLVING FOR ZETA FOR LAYER     3 ZONE     2
 
 SOLVING FOR HEAD 

 NO OUTPUT CONTROL FOR STRESS PERIOD    3   TIME STEP   64
 SOLVING FOR ZETA FOR LAYER     1 ZONE     2
 SOLVING FOR ZETA FOR LAYER     2 ZONE     2
 SOLVING FOR ZETA FOR LAYER     3 ZONE     2
 
 SOLVING FOR HEAD 

 NO OUTPUT CONTROL FOR STRESS PERIOD    3   TIME STEP   65
 SOLVING FOR ZETA FOR LAYER     1 ZONE     2
 SOLVING FOR ZETA FOR LAYER     2 ZONE     2
 SOLVING FOR ZETA FOR LAYER     3 ZONE     2
 
 SOLVING FOR HEAD 

 NO OUTPUT CONTROL FOR STRESS PERIOD    3   TIME STEP   66
 SOLVING FOR ZETA FOR LAYER     1 ZONE     2
 SOLVING FOR ZETA FOR LAYER     2 ZONE     2
 SOLVING FOR ZETA FOR LAYER     3 ZONE     2
 
 SOLVING FOR HEAD 

 NO OUTPUT CONTROL FOR STRESS PERIOD    3   TIME STEP   67
 SOLVING FOR ZETA FOR LAYER     1 ZONE     2
 SOLVING FOR ZETA FOR LAYER     2 ZONE     2
 SOLVING FOR ZETA FOR LAYER     3 ZONE     2
 
 SOLVING FOR HEAD 

 NO OUTPUT CONTROL FOR STRESS PERIOD    3   TIME STEP   68
 SOLVING FOR ZETA FOR LAYER     1 ZONE     2
 SOLVING FOR ZETA FOR LAYER     2 ZONE     2
 SOLVING FOR ZETA FOR LAYER     3 ZONE     2
 
 SOLVING FOR HEAD 

 NO OUTPUT CONTROL FOR STRESS PERIOD    3   TIME STEP   69
 SOLVING FOR ZETA FOR LAYER     1 ZONE     2
 SOLVING FOR ZETA FOR LAYER     2 ZONE     2
 SOLVING FOR ZETA FOR LAYER     3 ZONE     2
 
 SOLVING FOR HEAD 

 NO OUTPUT CONTROL FOR STRESS PERIOD    3   TIME STEP   70
 SOLVING FOR ZETA FOR LAYER     1 ZONE     2
 SOLVING FOR ZETA FOR LAYER     2 ZONE     2
 SOLVING FOR ZETA FOR LAYER     3 ZONE     2
 
 SOLVING FOR HEAD 

 NO OUTPUT CONTROL FOR STRESS PERIOD    3   TIME STEP   71
 SOLVING FOR ZETA FOR LAYER     1 ZONE     2
 SOLVING FOR ZETA FOR LAYER     2 ZONE     2
 SOLVING FOR ZETA FOR LAYER     3 ZONE     2
 
 SOLVING FOR HEAD 

 NO OUTPUT CONTROL FOR STRESS PERIOD    3   TIME STEP   72
 SOLVING FOR ZETA FOR LAYER     1 ZONE     2
 SOLVING FOR ZETA FOR LAYER     2 ZONE     2
 SOLVING FOR ZETA FOR LAYER     3 ZONE     2
 
 SOLVING FOR HEAD 

 NO OUTPUT CONTROL FOR STRESS PERIOD    3   TIME STEP   73
 SOLVING FOR ZETA FOR LAYER     1 ZONE     2
 SOLVING FOR ZETA FOR LAYER     2 ZONE     2
 SOLVING FOR ZETA FOR LAYER     3 ZONE     2
 
 SOLVING FOR HEAD 

 NO OUTPUT CONTROL FOR STRESS PERIOD    3   TIME STEP   74
 SOLVING FOR ZETA FOR LAYER     1 ZONE     2
 SOLVING FOR ZETA FOR LAYER     2 ZONE     2
 SOLVING FOR ZETA FOR LAYER     3 ZONE     2
 
 SOLVING FOR HEAD 

 NO OUTPUT CONTROL FOR STRESS PERIOD    3   TIME STEP   75
 SOLVING FOR ZETA FOR LAYER     1 ZONE     2
 SOLVING FOR ZETA FOR LAYER     2 ZONE     2
 SOLVING FOR ZETA FOR LAYER     3 ZONE     2
 
 SOLVING FOR HEAD 

 NO OUTPUT CONTROL FOR STRESS PERIOD    3   TIME STEP   76
 SOLVING FOR ZETA FOR LAYER     1 ZONE     2
 SOLVING FOR ZETA FOR LAYER     2 ZONE     2
 SOLVING FOR ZETA FOR LAYER     3 ZONE     2
 
 SOLVING FOR HEAD 

 NO OUTPUT CONTROL FOR STRESS PERIOD    3   TIME STEP   77
 SOLVING FOR ZETA FOR LAYER     1 ZONE     2
 SOLVING FOR ZETA FOR LAYER     2 ZONE     2
 SOLVING FOR ZETA FOR LAYER     3 ZONE     2
 
 SOLVING FOR HEAD 

 NO OUTPUT CONTROL FOR STRESS PERIOD    3   TIME STEP   78
 SOLVING FOR ZETA FOR LAYER     1 ZONE     2
 SOLVING FOR ZETA FOR LAYER     2 ZONE     2
 SOLVING FOR ZETA FOR LAYER     3 ZONE     2
 
 SOLVING FOR HEAD 

 NO OUTPUT CONTROL FOR STRESS PERIOD    3   TIME STEP   79
 SOLVING FOR ZETA FOR LAYER     1 ZONE     2
 SOLVING FOR ZETA FOR LAYER     2 ZONE     2
 SOLVING FOR ZETA FOR LAYER     3 ZONE     2
 
 SOLVING FOR HEAD 

 NO OUTPUT CONTROL FOR STRESS PERIOD    3   TIME STEP   80
 SOLVING FOR ZETA FOR LAYER     1 ZONE     2
 SOLVING FOR ZETA FOR LAYER     2 ZONE     2
 SOLVING FOR ZETA FOR LAYER     3 ZONE     2
 
 SOLVING FOR HEAD 

 NO OUTPUT CONTROL FOR STRESS PERIOD    3   TIME STEP   81
 SOLVING FOR ZETA FOR LAYER     1 ZONE     2
 SOLVING FOR ZETA FOR LAYER     2 ZONE     2
 SOLVING FOR ZETA FOR LAYER     3 ZONE     2
 
 SOLVING FOR HEAD 

 NO OUTPUT CONTROL FOR STRESS PERIOD    3   TIME STEP   82
 SOLVING FOR ZETA FOR LAYER     1 ZONE     2
 SOLVING FOR ZETA FOR LAYER     2 ZONE     2
 SOLVING FOR ZETA FOR LAYER     3 ZONE     2
 
 SOLVING FOR HEAD 

 NO OUTPUT CONTROL FOR STRESS PERIOD    3   TIME STEP   83
 SOLVING FOR ZETA FOR LAYER     1 ZONE     2
 SOLVING FOR ZETA FOR LAYER     2 ZONE     2
 SOLVING FOR ZETA FOR LAYER     3 ZONE     2
 
 SOLVING FOR HEAD 

 NO OUTPUT CONTROL FOR STRESS PERIOD    3   TIME STEP   84
 SOLVING FOR ZETA FOR LAYER     1 ZONE     2
 SOLVING FOR ZETA FOR LAYER     2 ZONE     2
 SOLVING FOR ZETA FOR LAYER     3 ZONE     2
 
 SOLVING FOR HEAD 

 NO OUTPUT CONTROL FOR STRESS PERIOD    3   TIME STEP   85
 SOLVING FOR ZETA FOR LAYER     1 ZONE     2
 SOLVING FOR ZETA FOR LAYER     2 ZONE     2
 SOLVING FOR ZETA FOR LAYER     3 ZONE     2
 
 SOLVING FOR HEAD 

 NO OUTPUT CONTROL FOR STRESS PERIOD    3   TIME STEP   86
 SOLVING FOR ZETA FOR LAYER     1 ZONE     2
 SOLVING FOR ZETA FOR LAYER     2 ZONE     2
 SOLVING FOR ZETA FOR LAYER     3 ZONE     2
 
 SOLVING FOR HEAD 

 NO OUTPUT CONTROL FOR STRESS PERIOD    3   TIME STEP   87
 SOLVING FOR ZETA FOR LAYER     1 ZONE     2
 SOLVING FOR ZETA FOR LAYER     2 ZONE     2
 SOLVING FOR ZETA FOR LAYER     3 ZONE     2
 
 SOLVING FOR HEAD 

 NO OUTPUT CONTROL FOR STRESS PERIOD    3   TIME STEP   88
 SOLVING FOR ZETA FOR LAYER     1 ZONE     2
 SOLVING FOR ZETA FOR LAYER     2 ZONE     2
 SOLVING FOR ZETA FOR LAYER     3 ZONE     2
 
 SOLVING FOR HEAD 

 NO OUTPUT CONTROL FOR STRESS PERIOD    3   TIME STEP   89
 SOLVING FOR ZETA FOR LAYER     1 ZONE     2
 SOLVING FOR ZETA FOR LAYER     2 ZONE     2
 SOLVING FOR ZETA FOR LAYER     3 ZONE     2
 
 SOLVING FOR HEAD 

 NO OUTPUT CONTROL FOR STRESS PERIOD    3   TIME STEP   90
 SOLVING FOR ZETA FOR LAYER     1 ZONE     2
 SOLVING FOR ZETA FOR LAYER     2 ZONE     2
 SOLVING FOR ZETA FOR LAYER     3 ZONE     2
 
 SOLVING FOR HEAD 

 NO OUTPUT CONTROL FOR STRESS PERIOD    3   TIME STEP   91
 SOLVING FOR ZETA FOR LAYER     1 ZONE     2
 SOLVING FOR ZETA FOR LAYER     2 ZONE     2
 SOLVING FOR ZETA FOR LAYER     3 ZONE     2
 
 SOLVING FOR HEAD 

 NO OUTPUT CONTROL FOR STRESS PERIOD    3   TIME STEP   92
 SOLVING FOR ZETA FOR LAYER     1 ZONE     2
 SOLVING FOR ZETA FOR LAYER     2 ZONE     2
 SOLVING FOR ZETA FOR LAYER     3 ZONE     2
 
 SOLVING FOR HEAD 

 NO OUTPUT CONTROL FOR STRESS PERIOD    3   TIME STEP   93
 SOLVING FOR ZETA FOR LAYER     1 ZONE     2
 SOLVING FOR ZETA FOR LAYER     2 ZONE     2
 SOLVING FOR ZETA FOR LAYER     3 ZONE     2
 
 SOLVING FOR HEAD 

 NO OUTPUT CONTROL FOR STRESS PERIOD    3   TIME STEP   94
 SOLVING FOR ZETA FOR LAYER     1 ZONE     2
 SOLVING FOR ZETA FOR LAYER     2 ZONE     2
 SOLVING FOR ZETA FOR LAYER     3 ZONE     2
 
 SOLVING FOR HEAD 

 NO OUTPUT CONTROL FOR STRESS PERIOD    3   TIME STEP   95
 SOLVING FOR ZETA FOR LAYER     1 ZONE     2
 SOLVING FOR ZETA FOR LAYER     2 ZONE     2
 SOLVING FOR ZETA FOR LAYER     3 ZONE     2
 
 SOLVING FOR HEAD 

 NO OUTPUT CONTROL FOR STRESS PERIOD    3   TIME STEP   96
 SOLVING FOR ZETA FOR LAYER     1 ZONE     2
 SOLVING FOR ZETA FOR LAYER     2 ZONE     2
 SOLVING FOR ZETA FOR LAYER     3 ZONE     2
 
 SOLVING FOR HEAD 

 NO OUTPUT CONTROL FOR STRESS PERIOD    3   TIME STEP   97
 SOLVING FOR ZETA FOR LAYER     1 ZONE     2
 SOLVING FOR ZETA FOR LAYER     2 ZONE     2
 SOLVING FOR ZETA FOR LAYER     3 ZONE     2
 
 SOLVING FOR HEAD 

 NO OUTPUT CONTROL FOR STRESS PERIOD    3   TIME STEP   98
 SOLVING FOR ZETA FOR LAYER     1 ZONE     2
 SOLVING FOR ZETA FOR LAYER     2 ZONE     2
 SOLVING FOR ZETA FOR LAYER     3 ZONE     2
 
 SOLVING FOR HEAD 

 NO OUTPUT CONTROL FOR STRESS PERIOD    3   TIME STEP   99
 SOLVING FOR ZETA FOR LAYER     1 ZONE     2
 SOLVING FOR ZETA FOR LAYER     2 ZONE     2
 SOLVING FOR ZETA FOR LAYER     3 ZONE     2
 
 SOLVING FOR HEAD 

 NO OUTPUT CONTROL FOR STRESS PERIOD    3   TIME STEP  100
 SOLVING FOR ZETA FOR LAYER     1 ZONE     2
 SOLVING FOR ZETA FOR LAYER     2 ZONE     2
 SOLVING FOR ZETA FOR LAYER     3 ZONE     2
 
 SOLVING FOR HEAD 

 NO OUTPUT CONTROL FOR STRESS PERIOD    3   TIME STEP  101
 SOLVING FOR ZETA FOR LAYER     1 ZONE     2
 SOLVING FOR ZETA FOR LAYER     2 ZONE     2
 SOLVING FOR ZETA FOR LAYER     3 ZONE     2
 
 SOLVING FOR HEAD 

 NO OUTPUT CONTROL FOR STRESS PERIOD    3   TIME STEP  102
 SOLVING FOR ZETA FOR LAYER     1 ZONE     2
 SOLVING FOR ZETA FOR LAYER     2 ZONE     2
 SOLVING FOR ZETA FOR LAYER     3 ZONE     2
 
 SOLVING FOR HEAD 

 NO OUTPUT CONTROL FOR STRESS PERIOD    3   TIME STEP  103
 SOLVING FOR ZETA FOR LAYER     1 ZONE     2
 SOLVING FOR ZETA FOR LAYER     2 ZONE     2
 SOLVING FOR ZETA FOR LAYER     3 ZONE     2
 
 SOLVING FOR HEAD 

 NO OUTPUT CONTROL FOR STRESS PERIOD    3   TIME STEP  104
 SOLVING FOR ZETA FOR LAYER     1 ZONE     2
 SOLVING FOR ZETA FOR LAYER     2 ZONE     2
 SOLVING FOR ZETA FOR LAYER     3 ZONE     2
 
 SOLVING FOR HEAD 

 NO OUTPUT CONTROL FOR STRESS PERIOD    3   TIME STEP  105
 SOLVING FOR ZETA FOR LAYER     1 ZONE     2
 SOLVING FOR ZETA FOR LAYER     2 ZONE     2
 SOLVING FOR ZETA FOR LAYER     3 ZONE     2
 
 SOLVING FOR HEAD 

 NO OUTPUT CONTROL FOR STRESS PERIOD    3   TIME STEP  106
 SOLVING FOR ZETA FOR LAYER     1 ZONE     2
 SOLVING FOR ZETA FOR LAYER     2 ZONE     2
 SOLVING FOR ZETA FOR LAYER     3 ZONE     2
 
 SOLVING FOR HEAD 

 NO OUTPUT CONTROL FOR STRESS PERIOD    3   TIME STEP  107
 SOLVING FOR ZETA FOR LAYER     1 ZONE     2
 SOLVING FOR ZETA FOR LAYER     2 ZONE     2
 SOLVING FOR ZETA FOR LAYER     3 ZONE     2
 
 SOLVING FOR HEAD 

 NO OUTPUT CONTROL FOR STRESS PERIOD    3   TIME STEP  108
 SOLVING FOR ZETA FOR LAYER     1 ZONE     2
 SOLVING FOR ZETA FOR LAYER     2 ZONE     2
 SOLVING FOR ZETA FOR LAYER     3 ZONE     2
 
 SOLVING FOR HEAD 

 NO OUTPUT CONTROL FOR STRESS PERIOD    3   TIME STEP  109
 SOLVING FOR ZETA FOR LAYER     1 ZONE     2
 SOLVING FOR ZETA FOR LAYER     2 ZONE     2
 SOLVING FOR ZETA FOR LAYER     3 ZONE     2
 
 SOLVING FOR HEAD 

 NO OUTPUT CONTROL FOR STRESS PERIOD    3   TIME STEP  110
 SOLVING FOR ZETA FOR LAYER     1 ZONE     2
 SOLVING FOR ZETA FOR LAYER     2 ZONE     2
 SOLVING FOR ZETA FOR LAYER     3 ZONE     2
 
 SOLVING FOR HEAD 

 NO OUTPUT CONTROL FOR STRESS PERIOD    3   TIME STEP  111
 SOLVING FOR ZETA FOR LAYER     1 ZONE     2
 SOLVING FOR ZETA FOR LAYER     2 ZONE     2
 SOLVING FOR ZETA FOR LAYER     3 ZONE     2
 
 SOLVING FOR HEAD 

 NO OUTPUT CONTROL FOR STRESS PERIOD    3   TIME STEP  112
 SOLVING FOR ZETA FOR LAYER     1 ZONE     2
 SOLVING FOR ZETA FOR LAYER     2 ZONE     2
 SOLVING FOR ZETA FOR LAYER     3 ZONE     2
 
 SOLVING FOR HEAD 

 NO OUTPUT CONTROL FOR STRESS PERIOD    3   TIME STEP  113
 SOLVING FOR ZETA FOR LAYER     1 ZONE     2
 SOLVING FOR ZETA FOR LAYER     2 ZONE     2
 SOLVING FOR ZETA FOR LAYER     3 ZONE     2
 
 SOLVING FOR HEAD 

 NO OUTPUT CONTROL FOR STRESS PERIOD    3   TIME STEP  114
 SOLVING FOR ZETA FOR LAYER     1 ZONE     2
 SOLVING FOR ZETA FOR LAYER     2 ZONE     2
 SOLVING FOR ZETA FOR LAYER     3 ZONE     2
 
 SOLVING FOR HEAD 

 NO OUTPUT CONTROL FOR STRESS PERIOD    3   TIME STEP  115
 SOLVING FOR ZETA FOR LAYER     1 ZONE     2
 SOLVING FOR ZETA FOR LAYER     2 ZONE     2
 SOLVING FOR ZETA FOR LAYER     3 ZONE     2
 
 SOLVING FOR HEAD 

 NO OUTPUT CONTROL FOR STRESS PERIOD    3   TIME STEP  116
 SOLVING FOR ZETA FOR LAYER     1 ZONE     2
 SOLVING FOR ZETA FOR LAYER     2 ZONE     2
 SOLVING FOR ZETA FOR LAYER     3 ZONE     2
 
 SOLVING FOR HEAD 

 NO OUTPUT CONTROL FOR STRESS PERIOD    3   TIME STEP  117
 SOLVING FOR ZETA FOR LAYER     1 ZONE     2
 SOLVING FOR ZETA FOR LAYER     2 ZONE     2
 SOLVING FOR ZETA FOR LAYER     3 ZONE     2
 
 SOLVING FOR HEAD 

 NO OUTPUT CONTROL FOR STRESS PERIOD    3   TIME STEP  118
 SOLVING FOR ZETA FOR LAYER     1 ZONE     2
 SOLVING FOR ZETA FOR LAYER     2 ZONE     2
 SOLVING FOR ZETA FOR LAYER     3 ZONE     2
 
 SOLVING FOR HEAD 

 NO OUTPUT CONTROL FOR STRESS PERIOD    3   TIME STEP  119
 SOLVING FOR ZETA FOR LAYER     1 ZONE     2
 SOLVING FOR ZETA FOR LAYER     2 ZONE     2
 SOLVING FOR ZETA FOR LAYER     3 ZONE     2
 
 SOLVING FOR HEAD 

 NO OUTPUT CONTROL FOR STRESS PERIOD    3   TIME STEP  120
 SOLVING FOR ZETA FOR LAYER     1 ZONE     2
 SOLVING FOR ZETA FOR LAYER     2 ZONE     2
 SOLVING FOR ZETA FOR LAYER     3 ZONE     2
 
 SOLVING FOR HEAD 

 NO OUTPUT CONTROL FOR STRESS PERIOD    3   TIME STEP  121
 SOLVING FOR ZETA FOR LAYER     1 ZONE     2
 SOLVING FOR ZETA FOR LAYER     2 ZONE     2
 SOLVING FOR ZETA FOR LAYER     3 ZONE     2
 
 SOLVING FOR HEAD 

 NO OUTPUT CONTROL FOR STRESS PERIOD    3   TIME STEP  122
 SOLVING FOR ZETA FOR LAYER     1 ZONE     2
 SOLVING FOR ZETA FOR LAYER     2 ZONE     2
 SOLVING FOR ZETA FOR LAYER     3 ZONE     2
 
 SOLVING FOR HEAD 

 NO OUTPUT CONTROL FOR STRESS PERIOD    3   TIME STEP  123
 SOLVING FOR ZETA FOR LAYER     1 ZONE     2
 SOLVING FOR ZETA FOR LAYER     2 ZONE     2
 SOLVING FOR ZETA FOR LAYER     3 ZONE     2
 
 SOLVING FOR HEAD 

 NO OUTPUT CONTROL FOR STRESS PERIOD    3   TIME STEP  124
 SOLVING FOR ZETA FOR LAYER     1 ZONE     2
 SOLVING FOR ZETA FOR LAYER     2 ZONE     2
 SOLVING FOR ZETA FOR LAYER     3 ZONE     2
 
 SOLVING FOR HEAD 

 NO OUTPUT CONTROL FOR STRESS PERIOD    3   TIME STEP  125
 SOLVING FOR ZETA FOR LAYER     1 ZONE     2
 SOLVING FOR ZETA FOR LAYER     2 ZONE     2
 SOLVING FOR ZETA FOR LAYER     3 ZONE     2
 
 SOLVING FOR HEAD 

 NO OUTPUT CONTROL FOR STRESS PERIOD    3   TIME STEP  126
 SOLVING FOR ZETA FOR LAYER     1 ZONE     2
 SOLVING FOR ZETA FOR LAYER     2 ZONE     2
 SOLVING FOR ZETA FOR LAYER     3 ZONE     2
 
 SOLVING FOR HEAD 

 NO OUTPUT CONTROL FOR STRESS PERIOD    3   TIME STEP  127
 SOLVING FOR ZETA FOR LAYER     1 ZONE     2
 SOLVING FOR ZETA FOR LAYER     2 ZONE     2
 SOLVING FOR ZETA FOR LAYER     3 ZONE     2
 
 SOLVING FOR HEAD 

 NO OUTPUT CONTROL FOR STRESS PERIOD    3   TIME STEP  128
 SOLVING FOR ZETA FOR LAYER     1 ZONE     2
 SOLVING FOR ZETA FOR LAYER     2 ZONE     2
 SOLVING FOR ZETA FOR LAYER     3 ZONE     2
 
 SOLVING FOR HEAD 

 NO OUTPUT CONTROL FOR STRESS PERIOD    3   TIME STEP  129
 SOLVING FOR ZETA FOR LAYER     1 ZONE     2
 SOLVING FOR ZETA FOR LAYER     2 ZONE     2
 SOLVING FOR ZETA FOR LAYER     3 ZONE     2
 
 SOLVING FOR HEAD 

 NO OUTPUT CONTROL FOR STRESS PERIOD    3   TIME STEP  130
 SOLVING FOR ZETA FOR LAYER     1 ZONE     2
 SOLVING FOR ZETA FOR LAYER     2 ZONE     2
 SOLVING FOR ZETA FOR LAYER     3 ZONE     2
 
 SOLVING FOR HEAD 

 NO OUTPUT CONTROL FOR STRESS PERIOD    3   TIME STEP  131
 SOLVING FOR ZETA FOR LAYER     1 ZONE     2
 SOLVING FOR ZETA FOR LAYER     2 ZONE     2
 SOLVING FOR ZETA FOR LAYER     3 ZONE     2
 
 SOLVING FOR HEAD 

 NO OUTPUT CONTROL FOR STRESS PERIOD    3   TIME STEP  132
 SOLVING FOR ZETA FOR LAYER     1 ZONE     2
 SOLVING FOR ZETA FOR LAYER     2 ZONE     2
 SOLVING FOR ZETA FOR LAYER     3 ZONE     2
 
 SOLVING FOR HEAD 

 NO OUTPUT CONTROL FOR STRESS PERIOD    3   TIME STEP  133
 SOLVING FOR ZETA FOR LAYER     1 ZONE     2
 SOLVING FOR ZETA FOR LAYER     2 ZONE     2
 SOLVING FOR ZETA FOR LAYER     3 ZONE     2
 
 SOLVING FOR HEAD 

 NO OUTPUT CONTROL FOR STRESS PERIOD    3   TIME STEP  134
 SOLVING FOR ZETA FOR LAYER     1 ZONE     2
 SOLVING FOR ZETA FOR LAYER     2 ZONE     2
 SOLVING FOR ZETA FOR LAYER     3 ZONE     2
 
 SOLVING FOR HEAD 

 NO OUTPUT CONTROL FOR STRESS PERIOD    3   TIME STEP  135
 SOLVING FOR ZETA FOR LAYER     1 ZONE     2
 SOLVING FOR ZETA FOR LAYER     2 ZONE     2
 SOLVING FOR ZETA FOR LAYER     3 ZONE     2
 
 SOLVING FOR HEAD 

 NO OUTPUT CONTROL FOR STRESS PERIOD    3   TIME STEP  136
 SOLVING FOR ZETA FOR LAYER     1 ZONE     2
 SOLVING FOR ZETA FOR LAYER     2 ZONE     2
 SOLVING FOR ZETA FOR LAYER     3 ZONE     2
 
 SOLVING FOR HEAD 

 NO OUTPUT CONTROL FOR STRESS PERIOD    3   TIME STEP  137
 SOLVING FOR ZETA FOR LAYER     1 ZONE     2
 SOLVING FOR ZETA FOR LAYER     2 ZONE     2
 SOLVING FOR ZETA FOR LAYER     3 ZONE     2
 
 SOLVING FOR HEAD 

 NO OUTPUT CONTROL FOR STRESS PERIOD    3   TIME STEP  138
 SOLVING FOR ZETA FOR LAYER     1 ZONE     2
 SOLVING FOR ZETA FOR LAYER     2 ZONE     2
 SOLVING FOR ZETA FOR LAYER     3 ZONE     2
 
 SOLVING FOR HEAD 

 NO OUTPUT CONTROL FOR STRESS PERIOD    3   TIME STEP  139
 SOLVING FOR ZETA FOR LAYER     1 ZONE     2
 SOLVING FOR ZETA FOR LAYER     2 ZONE     2
 SOLVING FOR ZETA FOR LAYER     3 ZONE     2
 
 SOLVING FOR HEAD 

 NO OUTPUT CONTROL FOR STRESS PERIOD    3   TIME STEP  140
 SOLVING FOR ZETA FOR LAYER     1 ZONE     2
 SOLVING FOR ZETA FOR LAYER     2 ZONE     2
 SOLVING FOR ZETA FOR LAYER     3 ZONE     2
 
 SOLVING FOR HEAD 

 NO OUTPUT CONTROL FOR STRESS PERIOD    3   TIME STEP  141
 SOLVING FOR ZETA FOR LAYER     1 ZONE     2
 SOLVING FOR ZETA FOR LAYER     2 ZONE     2
 SOLVING FOR ZETA FOR LAYER     3 ZONE     2
 
 SOLVING FOR HEAD 

 NO OUTPUT CONTROL FOR STRESS PERIOD    3   TIME STEP  142
 SOLVING FOR ZETA FOR LAYER     1 ZONE     2
 SOLVING FOR ZETA FOR LAYER     2 ZONE     2
 SOLVING FOR ZETA FOR LAYER     3 ZONE     2
 
 SOLVING FOR HEAD 

 NO OUTPUT CONTROL FOR STRESS PERIOD    3   TIME STEP  143
 SOLVING FOR ZETA FOR LAYER     1 ZONE     2
 SOLVING FOR ZETA FOR LAYER     2 ZONE     2
 SOLVING FOR ZETA FOR LAYER     3 ZONE     2
 
 SOLVING FOR HEAD 

 NO OUTPUT CONTROL FOR STRESS PERIOD    3   TIME STEP  144
 SOLVING FOR ZETA FOR LAYER     1 ZONE     2
 SOLVING FOR ZETA FOR LAYER     2 ZONE     2
 SOLVING FOR ZETA FOR LAYER     3 ZONE     2
 
 SOLVING FOR HEAD 

 NO OUTPUT CONTROL FOR STRESS PERIOD    3   TIME STEP  145
 SOLVING FOR ZETA FOR LAYER     1 ZONE     2
 SOLVING FOR ZETA FOR LAYER     2 ZONE     2
 SOLVING FOR ZETA FOR LAYER     3 ZONE     2
 
 SOLVING FOR HEAD 

 NO OUTPUT CONTROL FOR STRESS PERIOD    3   TIME STEP  146
 SOLVING FOR ZETA FOR LAYER     1 ZONE     2
 SOLVING FOR ZETA FOR LAYER     2 ZONE     2
 SOLVING FOR ZETA FOR LAYER     3 ZONE     2
 
 SOLVING FOR HEAD 

 NO OUTPUT CONTROL FOR STRESS PERIOD    3   TIME STEP  147
 SOLVING FOR ZETA FOR LAYER     1 ZONE     2
 SOLVING FOR ZETA FOR LAYER     2 ZONE     2
 SOLVING FOR ZETA FOR LAYER     3 ZONE     2
 
 SOLVING FOR HEAD 

 NO OUTPUT CONTROL FOR STRESS PERIOD    3   TIME STEP  148
 SOLVING FOR ZETA FOR LAYER     1 ZONE     2
 SOLVING FOR ZETA FOR LAYER     2 ZONE     2
 SOLVING FOR ZETA FOR LAYER     3 ZONE     2
 
 SOLVING FOR HEAD 

 NO OUTPUT CONTROL FOR STRESS PERIOD    3   TIME STEP  149
 SOLVING FOR ZETA FOR LAYER     1 ZONE     2
 SOLVING FOR ZETA FOR LAYER     2 ZONE     2
 SOLVING FOR ZETA FOR LAYER     3 ZONE     2
 
 SOLVING FOR HEAD 

 NO OUTPUT CONTROL FOR STRESS PERIOD    3   TIME STEP  150
 SOLVING FOR ZETA FOR LAYER     1 ZONE     2
 SOLVING FOR ZETA FOR LAYER     2 ZONE     2
 SOLVING FOR ZETA FOR LAYER     3 ZONE     2
 
 SOLVING FOR HEAD 

 NO OUTPUT CONTROL FOR STRESS PERIOD    3   TIME STEP  151
 SOLVING FOR ZETA FOR LAYER     1 ZONE     2
 SOLVING FOR ZETA FOR LAYER     2 ZONE     2
 SOLVING FOR ZETA FOR LAYER     3 ZONE     2
 
 SOLVING FOR HEAD 

 NO OUTPUT CONTROL FOR STRESS PERIOD    3   TIME STEP  152
 SOLVING FOR ZETA FOR LAYER     1 ZONE     2
 SOLVING FOR ZETA FOR LAYER     2 ZONE     2
 SOLVING FOR ZETA FOR LAYER     3 ZONE     2
 
 SOLVING FOR HEAD 

 NO OUTPUT CONTROL FOR STRESS PERIOD    3   TIME STEP  153
 SOLVING FOR ZETA FOR LAYER     1 ZONE     2
 SOLVING FOR ZETA FOR LAYER     2 ZONE     2
 SOLVING FOR ZETA FOR LAYER     3 ZONE     2
 
 SOLVING FOR HEAD 

 NO OUTPUT CONTROL FOR STRESS PERIOD    3   TIME STEP  154
 SOLVING FOR ZETA FOR LAYER     1 ZONE     2
 SOLVING FOR ZETA FOR LAYER     2 ZONE     2
 SOLVING FOR ZETA FOR LAYER     3 ZONE     2
 
 SOLVING FOR HEAD 

 NO OUTPUT CONTROL FOR STRESS PERIOD    3   TIME STEP  155
 SOLVING FOR ZETA FOR LAYER     1 ZONE     2
 SOLVING FOR ZETA FOR LAYER     2 ZONE     2
 SOLVING FOR ZETA FOR LAYER     3 ZONE     2
 
 SOLVING FOR HEAD 

 NO OUTPUT CONTROL FOR STRESS PERIOD    3   TIME STEP  156
 SOLVING FOR ZETA FOR LAYER     1 ZONE     2
 SOLVING FOR ZETA FOR LAYER     2 ZONE     2
 SOLVING FOR ZETA FOR LAYER     3 ZONE     2
 
 SOLVING FOR HEAD 

 NO OUTPUT CONTROL FOR STRESS PERIOD    3   TIME STEP  157
 SOLVING FOR ZETA FOR LAYER     1 ZONE     2
 SOLVING FOR ZETA FOR LAYER     2 ZONE     2
 SOLVING FOR ZETA FOR LAYER     3 ZONE     2
 
 SOLVING FOR HEAD 

 NO OUTPUT CONTROL FOR STRESS PERIOD    3   TIME STEP  158
 SOLVING FOR ZETA FOR LAYER     1 ZONE     2
 SOLVING FOR ZETA FOR LAYER     2 ZONE     2
 SOLVING FOR ZETA FOR LAYER     3 ZONE     2
 
 SOLVING FOR HEAD 

 NO OUTPUT CONTROL FOR STRESS PERIOD    3   TIME STEP  159
 SOLVING FOR ZETA FOR LAYER     1 ZONE     2
 SOLVING FOR ZETA FOR LAYER     2 ZONE     2
 SOLVING FOR ZETA FOR LAYER     3 ZONE     2
 
 SOLVING FOR HEAD 

 NO OUTPUT CONTROL FOR STRESS PERIOD    3   TIME STEP  160
 SOLVING FOR ZETA FOR LAYER     1 ZONE     2
 SOLVING FOR ZETA FOR LAYER     2 ZONE     2
 SOLVING FOR ZETA FOR LAYER     3 ZONE     2
 
 SOLVING FOR HEAD 

 NO OUTPUT CONTROL FOR STRESS PERIOD    3   TIME STEP  161
 SOLVING FOR ZETA FOR LAYER     1 ZONE     2
 SOLVING FOR ZETA FOR LAYER     2 ZONE     2
 SOLVING FOR ZETA FOR LAYER     3 ZONE     2
 
 SOLVING FOR HEAD 

 NO OUTPUT CONTROL FOR STRESS PERIOD    3   TIME STEP  162
 SOLVING FOR ZETA FOR LAYER     1 ZONE     2
 SOLVING FOR ZETA FOR LAYER     2 ZONE     2
 SOLVING FOR ZETA FOR LAYER     3 ZONE     2
 
 SOLVING FOR HEAD 

 NO OUTPUT CONTROL FOR STRESS PERIOD    3   TIME STEP  163
 SOLVING FOR ZETA FOR LAYER     1 ZONE     2
 SOLVING FOR ZETA FOR LAYER     2 ZONE     2
 SOLVING FOR ZETA FOR LAYER     3 ZONE     2
 
 SOLVING FOR HEAD 

 NO OUTPUT CONTROL FOR STRESS PERIOD    3   TIME STEP  164
 SOLVING FOR ZETA FOR LAYER     1 ZONE     2
 SOLVING FOR ZETA FOR LAYER     2 ZONE     2
 SOLVING FOR ZETA FOR LAYER     3 ZONE     2
 
 SOLVING FOR HEAD 

 NO OUTPUT CONTROL FOR STRESS PERIOD    3   TIME STEP  165
 SOLVING FOR ZETA FOR LAYER     1 ZONE     2
 SOLVING FOR ZETA FOR LAYER     2 ZONE     2
 SOLVING FOR ZETA FOR LAYER     3 ZONE     2
 
 SOLVING FOR HEAD 

 NO OUTPUT CONTROL FOR STRESS PERIOD    3   TIME STEP  166
 SOLVING FOR ZETA FOR LAYER     1 ZONE     2
 SOLVING FOR ZETA FOR LAYER     2 ZONE     2
 SOLVING FOR ZETA FOR LAYER     3 ZONE     2
 
 SOLVING FOR HEAD 

 NO OUTPUT CONTROL FOR STRESS PERIOD    3   TIME STEP  167
 SOLVING FOR ZETA FOR LAYER     1 ZONE     2
 SOLVING FOR ZETA FOR LAYER     2 ZONE     2
 SOLVING FOR ZETA FOR LAYER     3 ZONE     2
 
 SOLVING FOR HEAD 

 NO OUTPUT CONTROL FOR STRESS PERIOD    3   TIME STEP  168
 SOLVING FOR ZETA FOR LAYER     1 ZONE     2
 SOLVING FOR ZETA FOR LAYER     2 ZONE     2
 SOLVING FOR ZETA FOR LAYER     3 ZONE     2
 
 SOLVING FOR HEAD 

 NO OUTPUT CONTROL FOR STRESS PERIOD    3   TIME STEP  169
 SOLVING FOR ZETA FOR LAYER     1 ZONE     2
 SOLVING FOR ZETA FOR LAYER     2 ZONE     2
 SOLVING FOR ZETA FOR LAYER     3 ZONE     2
 
 SOLVING FOR HEAD 

 NO OUTPUT CONTROL FOR STRESS PERIOD    3   TIME STEP  170
 SOLVING FOR ZETA FOR LAYER     1 ZONE     2
 SOLVING FOR ZETA FOR LAYER     2 ZONE     2
 SOLVING FOR ZETA FOR LAYER     3 ZONE     2
 
 SOLVING FOR HEAD 

 NO OUTPUT CONTROL FOR STRESS PERIOD    3   TIME STEP  171
 SOLVING FOR ZETA FOR LAYER     1 ZONE     2
 SOLVING FOR ZETA FOR LAYER     2 ZONE     2
 SOLVING FOR ZETA FOR LAYER     3 ZONE     2
 
 SOLVING FOR HEAD 

 NO OUTPUT CONTROL FOR STRESS PERIOD    3   TIME STEP  172
 SOLVING FOR ZETA FOR LAYER     1 ZONE     2
 SOLVING FOR ZETA FOR LAYER     2 ZONE     2
 SOLVING FOR ZETA FOR LAYER     3 ZONE     2
 
 SOLVING FOR HEAD 

 NO OUTPUT CONTROL FOR STRESS PERIOD    3   TIME STEP  173
 SOLVING FOR ZETA FOR LAYER     1 ZONE     2
 SOLVING FOR ZETA FOR LAYER     2 ZONE     2
 SOLVING FOR ZETA FOR LAYER     3 ZONE     2
 
 SOLVING FOR HEAD 

 NO OUTPUT CONTROL FOR STRESS PERIOD    3   TIME STEP  174
 SOLVING FOR ZETA FOR LAYER     1 ZONE     2
 SOLVING FOR ZETA FOR LAYER     2 ZONE     2
 SOLVING FOR ZETA FOR LAYER     3 ZONE     2
 
 SOLVING FOR HEAD 

 NO OUTPUT CONTROL FOR STRESS PERIOD    3   TIME STEP  175
 SOLVING FOR ZETA FOR LAYER     1 ZONE     2
 SOLVING FOR ZETA FOR LAYER     2 ZONE     2
 SOLVING FOR ZETA FOR LAYER     3 ZONE     2
 
 SOLVING FOR HEAD 

 NO OUTPUT CONTROL FOR STRESS PERIOD    3   TIME STEP  176
 SOLVING FOR ZETA FOR LAYER     1 ZONE     2
 SOLVING FOR ZETA FOR LAYER     2 ZONE     2
 SOLVING FOR ZETA FOR LAYER     3 ZONE     2
 
 SOLVING FOR HEAD 

 NO OUTPUT CONTROL FOR STRESS PERIOD    3   TIME STEP  177
 SOLVING FOR ZETA FOR LAYER     1 ZONE     2
 SOLVING FOR ZETA FOR LAYER     2 ZONE     2
 SOLVING FOR ZETA FOR LAYER     3 ZONE     2
 
 SOLVING FOR HEAD 

 NO OUTPUT CONTROL FOR STRESS PERIOD    3   TIME STEP  178
 SOLVING FOR ZETA FOR LAYER     1 ZONE     2
 SOLVING FOR ZETA FOR LAYER     2 ZONE     2
 SOLVING FOR ZETA FOR LAYER     3 ZONE     2
 
 SOLVING FOR HEAD 

 NO OUTPUT CONTROL FOR STRESS PERIOD    3   TIME STEP  179
 SOLVING FOR ZETA FOR LAYER     1 ZONE     2
 SOLVING FOR ZETA FOR LAYER     2 ZONE     2
 SOLVING FOR ZETA FOR LAYER     3 ZONE     2
 
 SOLVING FOR HEAD 

 NO OUTPUT CONTROL FOR STRESS PERIOD    3   TIME STEP  180
 SOLVING FOR ZETA FOR LAYER     1 ZONE     2
 SOLVING FOR ZETA FOR LAYER     2 ZONE     2
 SOLVING FOR ZETA FOR LAYER     3 ZONE     2
 
 SOLVING FOR HEAD 

 NO OUTPUT CONTROL FOR STRESS PERIOD    3   TIME STEP  181
 SOLVING FOR ZETA FOR LAYER     1 ZONE     2
 SOLVING FOR ZETA FOR LAYER     2 ZONE     2
 SOLVING FOR ZETA FOR LAYER     3 ZONE     2
 
 SOLVING FOR HEAD 

 NO OUTPUT CONTROL FOR STRESS PERIOD    3   TIME STEP  182
 SOLVING FOR ZETA FOR LAYER     1 ZONE     2
 SOLVING FOR ZETA FOR LAYER     2 ZONE     2
 SOLVING FOR ZETA FOR LAYER     3 ZONE     2
 
 SOLVING FOR HEAD 

 NO OUTPUT CONTROL FOR STRESS PERIOD    3   TIME STEP  183
 SOLVING FOR ZETA FOR LAYER     1 ZONE     2
 SOLVING FOR ZETA FOR LAYER     2 ZONE     2
 SOLVING FOR ZETA FOR LAYER     3 ZONE     2
 
 SOLVING FOR HEAD 

 NO OUTPUT CONTROL FOR STRESS PERIOD    3   TIME STEP  184
 SOLVING FOR ZETA FOR LAYER     1 ZONE     2
 SOLVING FOR ZETA FOR LAYER     2 ZONE     2
 SOLVING FOR ZETA FOR LAYER     3 ZONE     2
 
 SOLVING FOR HEAD 

 NO OUTPUT CONTROL FOR STRESS PERIOD    3   TIME STEP  185
 SOLVING FOR ZETA FOR LAYER     1 ZONE     2
 SOLVING FOR ZETA FOR LAYER     2 ZONE     2
 SOLVING FOR ZETA FOR LAYER     3 ZONE     2
 
 SOLVING FOR HEAD 

 NO OUTPUT CONTROL FOR STRESS PERIOD    3   TIME STEP  186
 SOLVING FOR ZETA FOR LAYER     1 ZONE     2
 SOLVING FOR ZETA FOR LAYER     2 ZONE     2
 SOLVING FOR ZETA FOR LAYER     3 ZONE     2
 
 SOLVING FOR HEAD 

 NO OUTPUT CONTROL FOR STRESS PERIOD    3   TIME STEP  187
 SOLVING FOR ZETA FOR LAYER     1 ZONE     2
 SOLVING FOR ZETA FOR LAYER     2 ZONE     2
 SOLVING FOR ZETA FOR LAYER     3 ZONE     2
 
 SOLVING FOR HEAD 

 NO OUTPUT CONTROL FOR STRESS PERIOD    3   TIME STEP  188
 SOLVING FOR ZETA FOR LAYER     1 ZONE     2
 SOLVING FOR ZETA FOR LAYER     2 ZONE     2
 SOLVING FOR ZETA FOR LAYER     3 ZONE     2
 
 SOLVING FOR HEAD 

 NO OUTPUT CONTROL FOR STRESS PERIOD    3   TIME STEP  189
 SOLVING FOR ZETA FOR LAYER     1 ZONE     2
 SOLVING FOR ZETA FOR LAYER     2 ZONE     2
 SOLVING FOR ZETA FOR LAYER     3 ZONE     2
 
 SOLVING FOR HEAD 

 NO OUTPUT CONTROL FOR STRESS PERIOD    3   TIME STEP  190
 SOLVING FOR ZETA FOR LAYER     1 ZONE     2
 SOLVING FOR ZETA FOR LAYER     2 ZONE     2
 SOLVING FOR ZETA FOR LAYER     3 ZONE     2
 
 SOLVING FOR HEAD 

 NO OUTPUT CONTROL FOR STRESS PERIOD    3   TIME STEP  191
 SOLVING FOR ZETA FOR LAYER     1 ZONE     2
 SOLVING FOR ZETA FOR LAYER     2 ZONE     2
 SOLVING FOR ZETA FOR LAYER     3 ZONE     2
 
 SOLVING FOR HEAD 

 NO OUTPUT CONTROL FOR STRESS PERIOD    3   TIME STEP  192
 SOLVING FOR ZETA FOR LAYER     1 ZONE     2
 SOLVING FOR ZETA FOR LAYER     2 ZONE     2
 SOLVING FOR ZETA FOR LAYER     3 ZONE     2
 
 SOLVING FOR HEAD 

 NO OUTPUT CONTROL FOR STRESS PERIOD    3   TIME STEP  193
 SOLVING FOR ZETA FOR LAYER     1 ZONE     2
 SOLVING FOR ZETA FOR LAYER     2 ZONE     2
 SOLVING FOR ZETA FOR LAYER     3 ZONE     2
 
 SOLVING FOR HEAD 

 NO OUTPUT CONTROL FOR STRESS PERIOD    3   TIME STEP  194
 SOLVING FOR ZETA FOR LAYER     1 ZONE     2
 SOLVING FOR ZETA FOR LAYER     2 ZONE     2
 SOLVING FOR ZETA FOR LAYER     3 ZONE     2
 
 SOLVING FOR HEAD 

 NO OUTPUT CONTROL FOR STRESS PERIOD    3   TIME STEP  195
 SOLVING FOR ZETA FOR LAYER     1 ZONE     2
 SOLVING FOR ZETA FOR LAYER     2 ZONE     2
 SOLVING FOR ZETA FOR LAYER     3 ZONE     2
 
 SOLVING FOR HEAD 

 NO OUTPUT CONTROL FOR STRESS PERIOD    3   TIME STEP  196
 SOLVING FOR ZETA FOR LAYER     1 ZONE     2
 SOLVING FOR ZETA FOR LAYER     2 ZONE     2
 SOLVING FOR ZETA FOR LAYER     3 ZONE     2
 
 SOLVING FOR HEAD 

 NO OUTPUT CONTROL FOR STRESS PERIOD    3   TIME STEP  197
 SOLVING FOR ZETA FOR LAYER     1 ZONE     2
 SOLVING FOR ZETA FOR LAYER     2 ZONE     2
 SOLVING FOR ZETA FOR LAYER     3 ZONE     2
 
 SOLVING FOR HEAD 

 NO OUTPUT CONTROL FOR STRESS PERIOD    3   TIME STEP  198
 SOLVING FOR ZETA FOR LAYER     1 ZONE     2
 SOLVING FOR ZETA FOR LAYER     2 ZONE     2
 SOLVING FOR ZETA FOR LAYER     3 ZONE     2
 
 SOLVING FOR HEAD 

 NO OUTPUT CONTROL FOR STRESS PERIOD    3   TIME STEP  199
 SOLVING FOR ZETA FOR LAYER     1 ZONE     2
 SOLVING FOR ZETA FOR LAYER     2 ZONE     2
 SOLVING FOR ZETA FOR LAYER     3 ZONE     2
 
 SOLVING FOR HEAD 

 NO OUTPUT CONTROL FOR STRESS PERIOD    3   TIME STEP  200
 SOLVING FOR ZETA FOR LAYER     1 ZONE     2
 SOLVING FOR ZETA FOR LAYER     2 ZONE     2
 SOLVING FOR ZETA FOR LAYER     3 ZONE     2
 
 SOLVING FOR HEAD 

 NO OUTPUT CONTROL FOR STRESS PERIOD    3   TIME STEP  201
 SOLVING FOR ZETA FOR LAYER     1 ZONE     2
 SOLVING FOR ZETA FOR LAYER     2 ZONE     2
 SOLVING FOR ZETA FOR LAYER     3 ZONE     2
 
 SOLVING FOR HEAD 

 NO OUTPUT CONTROL FOR STRESS PERIOD    3   TIME STEP  202
 SOLVING FOR ZETA FOR LAYER     1 ZONE     2
 SOLVING FOR ZETA FOR LAYER     2 ZONE     2
 SOLVING FOR ZETA FOR LAYER     3 ZONE     2
 
 SOLVING FOR HEAD 

 NO OUTPUT CONTROL FOR STRESS PERIOD    3   TIME STEP  203
 SOLVING FOR ZETA FOR LAYER     1 ZONE     2
 SOLVING FOR ZETA FOR LAYER     2 ZONE     2
 SOLVING FOR ZETA FOR LAYER     3 ZONE     2
 
 SOLVING FOR HEAD 

 NO OUTPUT CONTROL FOR STRESS PERIOD    3   TIME STEP  204
 SOLVING FOR ZETA FOR LAYER     1 ZONE     2
 SOLVING FOR ZETA FOR LAYER     2 ZONE     2
 SOLVING FOR ZETA FOR LAYER     3 ZONE     2
 
 SOLVING FOR HEAD 

 NO OUTPUT CONTROL FOR STRESS PERIOD    3   TIME STEP  205
 SOLVING FOR ZETA FOR LAYER     1 ZONE     2
 SOLVING FOR ZETA FOR LAYER     2 ZONE     2
 SOLVING FOR ZETA FOR LAYER     3 ZONE     2
 
 SOLVING FOR HEAD 

 NO OUTPUT CONTROL FOR STRESS PERIOD    3   TIME STEP  206
 SOLVING FOR ZETA FOR LAYER     1 ZONE     2
 SOLVING FOR ZETA FOR LAYER     2 ZONE     2
 SOLVING FOR ZETA FOR LAYER     3 ZONE     2
 
 SOLVING FOR HEAD 

 NO OUTPUT CONTROL FOR STRESS PERIOD    3   TIME STEP  207
 SOLVING FOR ZETA FOR LAYER     1 ZONE     2
 SOLVING FOR ZETA FOR LAYER     2 ZONE     2
 SOLVING FOR ZETA FOR LAYER     3 ZONE     2
 
 SOLVING FOR HEAD 

 NO OUTPUT CONTROL FOR STRESS PERIOD    3   TIME STEP  208
 SOLVING FOR ZETA FOR LAYER     1 ZONE     2
 SOLVING FOR ZETA FOR LAYER     2 ZONE     2
 SOLVING FOR ZETA FOR LAYER     3 ZONE     2
 
 SOLVING FOR HEAD 

 NO OUTPUT CONTROL FOR STRESS PERIOD    3   TIME STEP  209
 SOLVING FOR ZETA FOR LAYER     1 ZONE     2
 SOLVING FOR ZETA FOR LAYER     2 ZONE     2
 SOLVING FOR ZETA FOR LAYER     3 ZONE     2
 
 SOLVING FOR HEAD 

 NO OUTPUT CONTROL FOR STRESS PERIOD    3   TIME STEP  210
 SOLVING FOR ZETA FOR LAYER     1 ZONE     2
 SOLVING FOR ZETA FOR LAYER     2 ZONE     2
 SOLVING FOR ZETA FOR LAYER     3 ZONE     2
 
 SOLVING FOR HEAD 

 NO OUTPUT CONTROL FOR STRESS PERIOD    3   TIME STEP  211
 SOLVING FOR ZETA FOR LAYER     1 ZONE     2
 SOLVING FOR ZETA FOR LAYER     2 ZONE     2
 SOLVING FOR ZETA FOR LAYER     3 ZONE     2
 
 SOLVING FOR HEAD 

 NO OUTPUT CONTROL FOR STRESS PERIOD    3   TIME STEP  212
 SOLVING FOR ZETA FOR LAYER     1 ZONE     2
 SOLVING FOR ZETA FOR LAYER     2 ZONE     2
 SOLVING FOR ZETA FOR LAYER     3 ZONE     2
 
 SOLVING FOR HEAD 

 NO OUTPUT CONTROL FOR STRESS PERIOD    3   TIME STEP  213
 SOLVING FOR ZETA FOR LAYER     1 ZONE     2
 SOLVING FOR ZETA FOR LAYER     2 ZONE     2
 SOLVING FOR ZETA FOR LAYER     3 ZONE     2
 
 SOLVING FOR HEAD 

 NO OUTPUT CONTROL FOR STRESS PERIOD    3   TIME STEP  214
 SOLVING FOR ZETA FOR LAYER     1 ZONE     2
 SOLVING FOR ZETA FOR LAYER     2 ZONE     2
 SOLVING FOR ZETA FOR LAYER     3 ZONE     2
 
 SOLVING FOR HEAD 

 NO OUTPUT CONTROL FOR STRESS PERIOD    3   TIME STEP  215
 SOLVING FOR ZETA FOR LAYER     1 ZONE     2
 SOLVING FOR ZETA FOR LAYER     2 ZONE     2
 SOLVING FOR ZETA FOR LAYER     3 ZONE     2
 
 SOLVING FOR HEAD 

 NO OUTPUT CONTROL FOR STRESS PERIOD    3   TIME STEP  216
 SOLVING FOR ZETA FOR LAYER     1 ZONE     2
 SOLVING FOR ZETA FOR LAYER     2 ZONE     2
 SOLVING FOR ZETA FOR LAYER     3 ZONE     2
 
 SOLVING FOR HEAD 

 NO OUTPUT CONTROL FOR STRESS PERIOD    3   TIME STEP  217
 SOLVING FOR ZETA FOR LAYER     1 ZONE     2
 SOLVING FOR ZETA FOR LAYER     2 ZONE     2
 SOLVING FOR ZETA FOR LAYER     3 ZONE     2
 
 SOLVING FOR HEAD 

 NO OUTPUT CONTROL FOR STRESS PERIOD    3   TIME STEP  218
 SOLVING FOR ZETA FOR LAYER     1 ZONE     2
 SOLVING FOR ZETA FOR LAYER     2 ZONE     2
 SOLVING FOR ZETA FOR LAYER     3 ZONE     2
 
 SOLVING FOR HEAD 

 NO OUTPUT CONTROL FOR STRESS PERIOD    3   TIME STEP  219
 SOLVING FOR ZETA FOR LAYER     1 ZONE     2
 SOLVING FOR ZETA FOR LAYER     2 ZONE     2
 SOLVING FOR ZETA FOR LAYER     3 ZONE     2
 
 SOLVING FOR HEAD 

 NO OUTPUT CONTROL FOR STRESS PERIOD    3   TIME STEP  220
 SOLVING FOR ZETA FOR LAYER     1 ZONE     2
 SOLVING FOR ZETA FOR LAYER     2 ZONE     2
 SOLVING FOR ZETA FOR LAYER     3 ZONE     2
 
 SOLVING FOR HEAD 

 NO OUTPUT CONTROL FOR STRESS PERIOD    3   TIME STEP  221
 SOLVING FOR ZETA FOR LAYER     1 ZONE     2
 SOLVING FOR ZETA FOR LAYER     2 ZONE     2
 SOLVING FOR ZETA FOR LAYER     3 ZONE     2
 
 SOLVING FOR HEAD 

 NO OUTPUT CONTROL FOR STRESS PERIOD    3   TIME STEP  222
 SOLVING FOR ZETA FOR LAYER     1 ZONE     2
 SOLVING FOR ZETA FOR LAYER     2 ZONE     2
 SOLVING FOR ZETA FOR LAYER     3 ZONE     2
 
 SOLVING FOR HEAD 

 NO OUTPUT CONTROL FOR STRESS PERIOD    3   TIME STEP  223
 SOLVING FOR ZETA FOR LAYER     1 ZONE     2
 SOLVING FOR ZETA FOR LAYER     2 ZONE     2
 SOLVING FOR ZETA FOR LAYER     3 ZONE     2
 
 SOLVING FOR HEAD 

 NO OUTPUT CONTROL FOR STRESS PERIOD    3   TIME STEP  224
 SOLVING FOR ZETA FOR LAYER     1 ZONE     2
 SOLVING FOR ZETA FOR LAYER     2 ZONE     2
 SOLVING FOR ZETA FOR LAYER     3 ZONE     2
 
 SOLVING FOR HEAD 

 NO OUTPUT CONTROL FOR STRESS PERIOD    3   TIME STEP  225
 SOLVING FOR ZETA FOR LAYER     1 ZONE     2
 SOLVING FOR ZETA FOR LAYER     2 ZONE     2
 SOLVING FOR ZETA FOR LAYER     3 ZONE     2
 
 SOLVING FOR HEAD 

 NO OUTPUT CONTROL FOR STRESS PERIOD    3   TIME STEP  226
 SOLVING FOR ZETA FOR LAYER     1 ZONE     2
 SOLVING FOR ZETA FOR LAYER     2 ZONE     2
 SOLVING FOR ZETA FOR LAYER     3 ZONE     2
 
 SOLVING FOR HEAD 

 NO OUTPUT CONTROL FOR STRESS PERIOD    3   TIME STEP  227
 SOLVING FOR ZETA FOR LAYER     1 ZONE     2
 SOLVING FOR ZETA FOR LAYER     2 ZONE     2
 SOLVING FOR ZETA FOR LAYER     3 ZONE     2
 
 SOLVING FOR HEAD 

 NO OUTPUT CONTROL FOR STRESS PERIOD    3   TIME STEP  228
 SOLVING FOR ZETA FOR LAYER     1 ZONE     2
 SOLVING FOR ZETA FOR LAYER     2 ZONE     2
 SOLVING FOR ZETA FOR LAYER     3 ZONE     2
 
 SOLVING FOR HEAD 

 NO OUTPUT CONTROL FOR STRESS PERIOD    3   TIME STEP  229
 SOLVING FOR ZETA FOR LAYER     1 ZONE     2
 SOLVING FOR ZETA FOR LAYER     2 ZONE     2
 SOLVING FOR ZETA FOR LAYER     3 ZONE     2
 
 SOLVING FOR HEAD 

 NO OUTPUT CONTROL FOR STRESS PERIOD    3   TIME STEP  230
 SOLVING FOR ZETA FOR LAYER     1 ZONE     2
 SOLVING FOR ZETA FOR LAYER     2 ZONE     2
 SOLVING FOR ZETA FOR LAYER     3 ZONE     2
 
 SOLVING FOR HEAD 

 NO OUTPUT CONTROL FOR STRESS PERIOD    3   TIME STEP  231
 SOLVING FOR ZETA FOR LAYER     1 ZONE     2
 SOLVING FOR ZETA FOR LAYER     2 ZONE     2
 SOLVING FOR ZETA FOR LAYER     3 ZONE     2
 
 SOLVING FOR HEAD 

 NO OUTPUT CONTROL FOR STRESS PERIOD    3   TIME STEP  232
 SOLVING FOR ZETA FOR LAYER     1 ZONE     2
 SOLVING FOR ZETA FOR LAYER     2 ZONE     2
 SOLVING FOR ZETA FOR LAYER     3 ZONE     2
 
 SOLVING FOR HEAD 

 NO OUTPUT CONTROL FOR STRESS PERIOD    3   TIME STEP  233
 SOLVING FOR ZETA FOR LAYER     1 ZONE     2
 SOLVING FOR ZETA FOR LAYER     2 ZONE     2
 SOLVING FOR ZETA FOR LAYER     3 ZONE     2
 
 SOLVING FOR HEAD 

 NO OUTPUT CONTROL FOR STRESS PERIOD    3   TIME STEP  234
 SOLVING FOR ZETA FOR LAYER     1 ZONE     2
 SOLVING FOR ZETA FOR LAYER     2 ZONE     2
 SOLVING FOR ZETA FOR LAYER     3 ZONE     2
 
 SOLVING FOR HEAD 

 NO OUTPUT CONTROL FOR STRESS PERIOD    3   TIME STEP  235
 SOLVING FOR ZETA FOR LAYER     1 ZONE     2
 SOLVING FOR ZETA FOR LAYER     2 ZONE     2
 SOLVING FOR ZETA FOR LAYER     3 ZONE     2
 
 SOLVING FOR HEAD 

 NO OUTPUT CONTROL FOR STRESS PERIOD    3   TIME STEP  236
 SOLVING FOR ZETA FOR LAYER     1 ZONE     2
 SOLVING FOR ZETA FOR LAYER     2 ZONE     2
 SOLVING FOR ZETA FOR LAYER     3 ZONE     2
 
 SOLVING FOR HEAD 

 NO OUTPUT CONTROL FOR STRESS PERIOD    3   TIME STEP  237
 SOLVING FOR ZETA FOR LAYER     1 ZONE     2
 SOLVING FOR ZETA FOR LAYER     2 ZONE     2
 SOLVING FOR ZETA FOR LAYER     3 ZONE     2
 
 SOLVING FOR HEAD 

 NO OUTPUT CONTROL FOR STRESS PERIOD    3   TIME STEP  238
 SOLVING FOR ZETA FOR LAYER     1 ZONE     2
 SOLVING FOR ZETA FOR LAYER     2 ZONE     2
 SOLVING FOR ZETA FOR LAYER     3 ZONE     2
 
 SOLVING FOR HEAD 

 NO OUTPUT CONTROL FOR STRESS PERIOD    3   TIME STEP  239
 SOLVING FOR ZETA FOR LAYER     1 ZONE     2
 SOLVING FOR ZETA FOR LAYER     2 ZONE     2
 SOLVING FOR ZETA FOR LAYER     3 ZONE     2
 
 SOLVING FOR HEAD 

 NO OUTPUT CONTROL FOR STRESS PERIOD    3   TIME STEP  240
 SOLVING FOR ZETA FOR LAYER     1 ZONE     2
 SOLVING FOR ZETA FOR LAYER     2 ZONE     2
 SOLVING FOR ZETA FOR LAYER     3 ZONE     2
 
 SOLVING FOR HEAD 

 NO OUTPUT CONTROL FOR STRESS PERIOD    3   TIME STEP  241
 SOLVING FOR ZETA FOR LAYER     1 ZONE     2
 SOLVING FOR ZETA FOR LAYER     2 ZONE     2
 SOLVING FOR ZETA FOR LAYER     3 ZONE     2
 
 SOLVING FOR HEAD 

 NO OUTPUT CONTROL FOR STRESS PERIOD    3   TIME STEP  242
 SOLVING FOR ZETA FOR LAYER     1 ZONE     2
 SOLVING FOR ZETA FOR LAYER     2 ZONE     2
 SOLVING FOR ZETA FOR LAYER     3 ZONE     2
 
 SOLVING FOR HEAD 

 NO OUTPUT CONTROL FOR STRESS PERIOD    3   TIME STEP  243
 SOLVING FOR ZETA FOR LAYER     1 ZONE     2
 SOLVING FOR ZETA FOR LAYER     2 ZONE     2
 SOLVING FOR ZETA FOR LAYER     3 ZONE     2
 
 SOLVING FOR HEAD 

 NO OUTPUT CONTROL FOR STRESS PERIOD    3   TIME STEP  244
 SOLVING FOR ZETA FOR LAYER     1 ZONE     2
 SOLVING FOR ZETA FOR LAYER     2 ZONE     2
 SOLVING FOR ZETA FOR LAYER     3 ZONE     2
 
 SOLVING FOR HEAD 

 NO OUTPUT CONTROL FOR STRESS PERIOD    3   TIME STEP  245
 SOLVING FOR ZETA FOR LAYER     1 ZONE     2
 SOLVING FOR ZETA FOR LAYER     2 ZONE     2
 SOLVING FOR ZETA FOR LAYER     3 ZONE     2
 
 SOLVING FOR HEAD 

 NO OUTPUT CONTROL FOR STRESS PERIOD    3   TIME STEP  246
 SOLVING FOR ZETA FOR LAYER     1 ZONE     2
 SOLVING FOR ZETA FOR LAYER     2 ZONE     2
 SOLVING FOR ZETA FOR LAYER     3 ZONE     2
 
 SOLVING FOR HEAD 

 NO OUTPUT CONTROL FOR STRESS PERIOD    3   TIME STEP  247
 SOLVING FOR ZETA FOR LAYER     1 ZONE     2
 SOLVING FOR ZETA FOR LAYER     2 ZONE     2
 SOLVING FOR ZETA FOR LAYER     3 ZONE     2
 
 SOLVING FOR HEAD 

 NO OUTPUT CONTROL FOR STRESS PERIOD    3   TIME STEP  248
 SOLVING FOR ZETA FOR LAYER     1 ZONE     2
 SOLVING FOR ZETA FOR LAYER     2 ZONE     2
 SOLVING FOR ZETA FOR LAYER     3 ZONE     2
 
 SOLVING FOR HEAD 

 NO OUTPUT CONTROL FOR STRESS PERIOD    3   TIME STEP  249
 SOLVING FOR ZETA FOR LAYER     1 ZONE     2
 SOLVING FOR ZETA FOR LAYER     2 ZONE     2
 SOLVING FOR ZETA FOR LAYER     3 ZONE     2
 
 SOLVING FOR HEAD 

 NO OUTPUT CONTROL FOR STRESS PERIOD    3   TIME STEP  250
 SOLVING FOR ZETA FOR LAYER     1 ZONE     2
 SOLVING FOR ZETA FOR LAYER     2 ZONE     2
 SOLVING FOR ZETA FOR LAYER     3 ZONE     2
 
 SOLVING FOR HEAD 

 NO OUTPUT CONTROL FOR STRESS PERIOD    3   TIME STEP  251
 SOLVING FOR ZETA FOR LAYER     1 ZONE     2
 SOLVING FOR ZETA FOR LAYER     2 ZONE     2
 SOLVING FOR ZETA FOR LAYER     3 ZONE     2
 
 SOLVING FOR HEAD 

 NO OUTPUT CONTROL FOR STRESS PERIOD    3   TIME STEP  252
 SOLVING FOR ZETA FOR LAYER     1 ZONE     2
 SOLVING FOR ZETA FOR LAYER     2 ZONE     2
 SOLVING FOR ZETA FOR LAYER     3 ZONE     2
 
 SOLVING FOR HEAD 

 NO OUTPUT CONTROL FOR STRESS PERIOD    3   TIME STEP  253
 SOLVING FOR ZETA FOR LAYER     1 ZONE     2
 SOLVING FOR ZETA FOR LAYER     2 ZONE     2
 SOLVING FOR ZETA FOR LAYER     3 ZONE     2
 
 SOLVING FOR HEAD 

 NO OUTPUT CONTROL FOR STRESS PERIOD    3   TIME STEP  254
 SOLVING FOR ZETA FOR LAYER     1 ZONE     2
 SOLVING FOR ZETA FOR LAYER     2 ZONE     2
 SOLVING FOR ZETA FOR LAYER     3 ZONE     2
 
 SOLVING FOR HEAD 

 NO OUTPUT CONTROL FOR STRESS PERIOD    3   TIME STEP  255
 SOLVING FOR ZETA FOR LAYER     1 ZONE     2
 SOLVING FOR ZETA FOR LAYER     2 ZONE     2
 SOLVING FOR ZETA FOR LAYER     3 ZONE     2
 
 SOLVING FOR HEAD 

 NO OUTPUT CONTROL FOR STRESS PERIOD    3   TIME STEP  256
 SOLVING FOR ZETA FOR LAYER     1 ZONE     2
 SOLVING FOR ZETA FOR LAYER     2 ZONE     2
 SOLVING FOR ZETA FOR LAYER     3 ZONE     2
 
 SOLVING FOR HEAD 

 NO OUTPUT CONTROL FOR STRESS PERIOD    3   TIME STEP  257
 SOLVING FOR ZETA FOR LAYER     1 ZONE     2
 SOLVING FOR ZETA FOR LAYER     2 ZONE     2
 SOLVING FOR ZETA FOR LAYER     3 ZONE     2
 
 SOLVING FOR HEAD 

 NO OUTPUT CONTROL FOR STRESS PERIOD    3   TIME STEP  258
 SOLVING FOR ZETA FOR LAYER     1 ZONE     2
 SOLVING FOR ZETA FOR LAYER     2 ZONE     2
 SOLVING FOR ZETA FOR LAYER     3 ZONE     2
 
 SOLVING FOR HEAD 

 NO OUTPUT CONTROL FOR STRESS PERIOD    3   TIME STEP  259
 SOLVING FOR ZETA FOR LAYER     1 ZONE     2
 SOLVING FOR ZETA FOR LAYER     2 ZONE     2
 SOLVING FOR ZETA FOR LAYER     3 ZONE     2
 
 SOLVING FOR HEAD 

 NO OUTPUT CONTROL FOR STRESS PERIOD    3   TIME STEP  260
 SOLVING FOR ZETA FOR LAYER     1 ZONE     2
 SOLVING FOR ZETA FOR LAYER     2 ZONE     2
 SOLVING FOR ZETA FOR LAYER     3 ZONE     2
 
 SOLVING FOR HEAD 

 NO OUTPUT CONTROL FOR STRESS PERIOD    3   TIME STEP  261
 SOLVING FOR ZETA FOR LAYER     1 ZONE     2
 SOLVING FOR ZETA FOR LAYER     2 ZONE     2
 SOLVING FOR ZETA FOR LAYER     3 ZONE     2
 
 SOLVING FOR HEAD 

 NO OUTPUT CONTROL FOR STRESS PERIOD    3   TIME STEP  262
 SOLVING FOR ZETA FOR LAYER     1 ZONE     2
 SOLVING FOR ZETA FOR LAYER     2 ZONE     2
 SOLVING FOR ZETA FOR LAYER     3 ZONE     2
 
 SOLVING FOR HEAD 

 NO OUTPUT CONTROL FOR STRESS PERIOD    3   TIME STEP  263
 SOLVING FOR ZETA FOR LAYER     1 ZONE     2
 SOLVING FOR ZETA FOR LAYER     2 ZONE     2
 SOLVING FOR ZETA FOR LAYER     3 ZONE     2
 
 SOLVING FOR HEAD 

 NO OUTPUT CONTROL FOR STRESS PERIOD    3   TIME STEP  264
 SOLVING FOR ZETA FOR LAYER     1 ZONE     2
 SOLVING FOR ZETA FOR LAYER     2 ZONE     2
 SOLVING FOR ZETA FOR LAYER     3 ZONE     2
 
 SOLVING FOR HEAD 

 NO OUTPUT CONTROL FOR STRESS PERIOD    3   TIME STEP  265
 SOLVING FOR ZETA FOR LAYER     1 ZONE     2
 SOLVING FOR ZETA FOR LAYER     2 ZONE     2
 SOLVING FOR ZETA FOR LAYER     3 ZONE     2
 
 SOLVING FOR HEAD 

 NO OUTPUT CONTROL FOR STRESS PERIOD    3   TIME STEP  266
 SOLVING FOR ZETA FOR LAYER     1 ZONE     2
 SOLVING FOR ZETA FOR LAYER     2 ZONE     2
 SOLVING FOR ZETA FOR LAYER     3 ZONE     2
 
 SOLVING FOR HEAD 

 NO OUTPUT CONTROL FOR STRESS PERIOD    3   TIME STEP  267
 SOLVING FOR ZETA FOR LAYER     1 ZONE     2
 SOLVING FOR ZETA FOR LAYER     2 ZONE     2
 SOLVING FOR ZETA FOR LAYER     3 ZONE     2
 
 SOLVING FOR HEAD 

 NO OUTPUT CONTROL FOR STRESS PERIOD    3   TIME STEP  268
 SOLVING FOR ZETA FOR LAYER     1 ZONE     2
 SOLVING FOR ZETA FOR LAYER     2 ZONE     2
 SOLVING FOR ZETA FOR LAYER     3 ZONE     2
 
 SOLVING FOR HEAD 

 NO OUTPUT CONTROL FOR STRESS PERIOD    3   TIME STEP  269
 SOLVING FOR ZETA FOR LAYER     1 ZONE     2
 SOLVING FOR ZETA FOR LAYER     2 ZONE     2
 SOLVING FOR ZETA FOR LAYER     3 ZONE     2
 
 SOLVING FOR HEAD 

 NO OUTPUT CONTROL FOR STRESS PERIOD    3   TIME STEP  270
 SOLVING FOR ZETA FOR LAYER     1 ZONE     2
 SOLVING FOR ZETA FOR LAYER     2 ZONE     2
 SOLVING FOR ZETA FOR LAYER     3 ZONE     2
 
 SOLVING FOR HEAD 

 NO OUTPUT CONTROL FOR STRESS PERIOD    3   TIME STEP  271
 SOLVING FOR ZETA FOR LAYER     1 ZONE     2
 SOLVING FOR ZETA FOR LAYER     2 ZONE     2
 SOLVING FOR ZETA FOR LAYER     3 ZONE     2
 
 SOLVING FOR HEAD 

 NO OUTPUT CONTROL FOR STRESS PERIOD    3   TIME STEP  272
 SOLVING FOR ZETA FOR LAYER     1 ZONE     2
 SOLVING FOR ZETA FOR LAYER     2 ZONE     2
 SOLVING FOR ZETA FOR LAYER     3 ZONE     2
 
 SOLVING FOR HEAD 

 OUTPUT CONTROL FOR STRESS PERIOD    3   TIME STEP  273
    PRINT BUDGET
    SAVE HEAD FOR ALL LAYERS
 SOLVING FOR ZETA FOR LAYER     1 ZONE     2
 SOLVING FOR ZETA FOR LAYER     2 ZONE     2
 SOLVING FOR ZETA FOR LAYER     3 ZONE     2
 UBUDSV SAVING "      ZETASRF  1" ON UNIT 55 AT TIME STEP273, STRESS PERIOD    3


                      VOLUMETRIC SWI ZONE BUDGET FOR ENTIRE MODEL
                     AT END OF TIME STEP  273 IN STRESS PERIOD   3
                                      ZONE     1
  -----------------------------------------------------------------------------------

        CUMULATIVE VOLUMES      L**3       RATES FOR THIS TIME STEP      L**3/T
        ------------------                 ------------------------

              IN:                                      IN:
              ---                                      ---
             BOUNDARIES =   419955072.0000            BOUNDARIES =        5861.8062
          CONSTANT HEAD =           0.0000         CONSTANT HEAD =           0.0000
            ZONE CHANGE =    13154037.0000           ZONE CHANGE =         325.3554
       ZONE CHG TIP/TOE =   217805808.0000      ZONE CHG TIP/TOE =         421.1398
            ZONE MIXING =     1078263.7500           ZONE MIXING =           0.0000

               TOTAL IN =   651993216.0000              TOTAL IN =        6608.3013

             OUT:                                     OUT:
             ----                                     ----
             BOUNDARIES =   272728288.0000            BOUNDARIES =        4430.6182
          CONSTANT HEAD =           0.0000         CONSTANT HEAD =           0.0000
            ZONE CHANGE =   230901408.0000           ZONE CHANGE =         568.9291
       ZONE CHG TIP/TOE =      370422.1875      ZONE CHG TIP/TOE =         103.7329
            ZONE MIXING =    61356460.0000           ZONE MIXING =         543.9434

              TOTAL OUT =   565356608.0000             TOTAL OUT =        5647.2236

               IN - OUT =    86636608.0000              IN - OUT =         961.0776

    PERCENT DISCREPANCY =          14.23     PERCENT DISCREPANCY =          15.68



                      VOLUMETRIC SWI ZONE BUDGET FOR ENTIRE MODEL
                     AT END OF TIME STEP  273 IN STRESS PERIOD   3
                                      ZONE     2
  -----------------------------------------------------------------------------------

        CUMULATIVE VOLUMES      L**3       RATES FOR THIS TIME STEP      L**3/T
        ------------------                 ------------------------

              IN:                                      IN:
              ---                                      ---
             BOUNDARIES =    83390320.0000            BOUNDARIES =         475.9235
          CONSTANT HEAD =           0.0000         CONSTANT HEAD =           0.0000
            ZONE CHANGE =    12979707.0000           ZONE CHANGE =         112.7621
       ZONE CHG TIP/TOE =   141111216.0000      ZONE CHG TIP/TOE =         222.1007
            ZONE MIXING =    61356460.0000           ZONE MIXING =         543.9434

               TOTAL IN =   298837696.0000              TOTAL IN =        1354.7296

             OUT:                                     OUT:
             ----                                     ----
             BOUNDARIES =   230873216.0000            BOUNDARIES =        2037.5465
          CONSTANT HEAD =           0.0000         CONSTANT HEAD =           0.0000
            ZONE CHANGE =   153700432.0000           ZONE CHANGE =         227.8341
       ZONE CHG TIP/TOE =      135475.7656      ZONE CHG TIP/TOE =          17.1372
            ZONE MIXING =     1078263.7500           ZONE MIXING =           0.0000

              TOTAL OUT =   385787392.0000             TOTAL OUT =        2282.5178

               IN - OUT =   -86949696.0000              IN - OUT =        -927.7882

    PERCENT DISCREPANCY =         -25.40     PERCENT DISCREPANCY =         -51.02


 HEAD WILL BE SAVED ON UNIT   51 AT END OF TIME STEP  273, STRESS PERIOD    3
1
  VOLUMETRIC BUDGET FOR ENTIRE MODEL AT END OF TIME STEP  273, STRESS PERIOD   3
  ------------------------------------------------------------------------------

     CUMULATIVE VOLUMES      L**3       RATES FOR THIS TIME STEP      L**3/T
     ------------------                 ------------------------

           IN:                                      IN:
           ---                                      ---
             STORAGE =      105413.7578               STORAGE =         171.0495
       CONSTANT HEAD =           0.0000         CONSTANT HEAD =           0.0000
          SWIADDTOCH =           0.0000            SWIADDTOCH =           0.0000
               WELLS =           0.0000                 WELLS =           0.0000
     HEAD DEP BOUNDS =    73544920.0000       HEAD DEP BOUNDS =         476.1812
            RECHARGE =   429798368.0000              RECHARGE =        5861.7627

            TOTAL IN =   503448704.0000              TOTAL IN =        6508.9932

          OUT:                                     OUT:
          ----                                     ----
             STORAGE =      107020.2422               STORAGE =          44.1934
       CONSTANT HEAD =           0.0000         CONSTANT HEAD =           0.0000
          SWIADDTOCH =           0.0000            SWIADDTOCH =           0.0000
               WELLS =        9525.6826                 WELLS =           0.0000
     HEAD DEP BOUNDS =   503591808.0000       HEAD DEP BOUNDS =        6468.6162
            RECHARGE =           0.0000              RECHARGE =           0.0000

           TOTAL OUT =   503708352.0000             TOTAL OUT =        6512.8096

            IN - OUT =     -259648.0000              IN - OUT =          -3.8164

 PERCENT DISCREPANCY =          -0.05     PERCENT DISCREPANCY =          -0.06






         TIME SUMMARY AT END OF TIME STEP  273 IN STRESS PERIOD    3
                    SECONDS     MINUTES      HOURS       DAYS        YEARS
                    -----------------------------------------------------------
   TIME STEP LENGTH  86400.      1440.0      24.000      1.0000     2.73785E-03
 STRESS PERIOD TIME 2.35872E+07 3.93120E+05  6552.0      273.00     0.74743    
         TOTAL TIME 6.34307E+09 1.05718E+08 1.76196E+06  73415.      201.00    
1
1
                            STRESS PERIOD NO.    4, LENGTH =   92.00000    
                            -----------------------------------------------

                              NUMBER OF TIME STEPS =    92

                               MULTIPLIER FOR DELT =     1.000

                            INITIAL TIME STEP SIZE =   1.000000    

 WELL NO.  LAYER   ROW   COL   STRESS RATE         
 --------------------------------------------------
      1      1     61     33      -7.270    
      2      1     59     38      -7.270    
      3      2     59     43      -7.270    
      4      2     57     43      -7.270    
      5      2     54     36      -7.270    
      6      2     52     38      -7.270    
      7      2     49     48       0.000    
      8      2     45     36       0.000    
      9      2     44     38      -7.270    
     10      1     43     40      -7.270    
     11      2     43     49      -7.270    
     12      2     40     39      -1.450    
     13      3     38     43      -14.85    
     14      1     37     38      -7.270    
     15      2     31     47      -7.270    
     16      2     27     41      -7.270    

     16 WELLS

 BOUND. NO. LAYER   ROW   COL     STAGE      CONDUCTANCE         
 ----------------------------------------------------------------
      1      1      1      1      0.3710          0.6804E+06
      2      1      1      2      0.3728          0.6804E+06
      3      1      1      3      0.3752          0.6804E+06
      4      1      1      4      0.3788          0.6804E+06
      5      1      1      5      0.3831          0.6804E+06
      6      1      1      6      0.3866          0.6804E+06
      7      1      1      7      0.3899          0.6804E+06
      8      1      1      8      0.3923          0.6804E+06
      9      1      1      9      0.3929          0.6804E+06
     10      1      1     10      0.3920          0.6804E+06
     11      1      1     11      0.3898          0.6804E+06
     12      1      1     12      0.3858          0.6804E+06
     13      1      1     13      0.3804          0.6804E+06
     14      1      1     14      0.3745          0.6804E+06
     15      1      1     15      0.3653          0.6804E+06
     16      1      1     16      0.3536          0.6804E+06
     17      1      1     17      0.3377          0.6804E+06
     18      1      1     18      0.3210          0.6804E+06
     19      1      1     19      0.3060          0.6804E+06
     20      1      1     20      0.2933          0.6804E+06
     21      1      1     21      0.2859          0.6804E+06
     22      1      1     22      0.2825          0.6804E+06
     23      1      1     23      0.2793          0.6804E+06
     24      1      1     24      0.2771          0.6804E+06
     25      1      1     25      0.2757          0.6804E+06
     26      1      1     26      0.2760          0.6804E+06
     27      1      1     27      0.2781          0.6804E+06
     28      1      1     28      0.2828          0.6804E+06
     29      1      1     29      0.2895          0.6804E+06
     30      1      1     30      0.2965          0.6804E+06
     31      1      1     31      0.3052          0.6804E+06
     32      1      1     32      0.3127          0.6804E+06
     33      1      1     33      0.3202          0.6804E+06
     34      1      1     34      0.3261          0.6804E+06
     35      1      1     35      0.3301          0.6804E+06
     36      1      1     36      0.3340          0.6804E+06
     37      1      1     37      0.3365          0.6804E+06
     38      1      1     38      0.3374          0.6804E+06
     39      1      1     39      0.3370          0.6804E+06
     40      1      1     40      0.3368          0.6804E+06
     41      1      1     41      0.3368          0.6804E+06
     42      1      1     42      0.3373          0.6804E+06
     43      1      1     43      0.3383          0.6804E+06
     44      1      1     44      0.3403          0.6804E+06
     45      1      1     45      0.3423          0.6804E+06
     46      1      1     46      0.3432          0.6804E+06
     47      1      1     47      0.3432          0.6804E+06
     48      1      1     48      0.3427          0.6804E+06
     49      1      1     49      0.3409          0.6804E+06
     50      1      1     50      0.3379          0.6804E+06
     51      1      1     51      0.3343          0.6804E+06
     52      1      1     52      0.3286          0.6804E+06
     53      1      1     53      0.3224          0.6804E+06
     54      1      1     54      0.3148          0.6804E+06
     55      1      1     55      0.3072          0.6804E+06
     56      1      1     56      0.3003          0.6804E+06
     57      1      1     57      0.2926          0.6804E+06
     58      1      1     58      0.2852          0.6804E+06
     59      1      1     59      0.2786          0.6804E+06
     60      1      1     60      0.2703          0.6804E+06
     61      1      1     61      0.2632          0.6804E+06
     62      1      1     62      0.2554          0.6804E+06
     63      1      1     63      0.2480          0.6804E+06
     64      1      1     64      0.2423          0.6804E+06
     65      1      1     65      0.2365          0.6804E+06
     66      1      1     66      0.2312          0.6804E+06
     67      1      1     67      0.2269          0.6804E+06
     68      1      1     68      0.2222          0.6804E+06
     69      1      1     69      0.2181          0.6804E+06
     70      1      1     70      0.2135          0.6804E+06
     71      1      1     71      0.2088          0.6804E+06
     72      1      1     72      0.2045          0.6804E+06
     73      1      1     73      0.1995          0.6804E+06
     74      1      1     74      0.1936          0.6804E+06
     75      1      1     75      0.1881          0.6804E+06
     76      1      1     76      0.1818          0.6804E+06
     77      1      1     77      0.1766          0.6804E+06
     78      1      1     78      0.1703          0.6804E+06
     79      1      1     79      0.1635          0.6804E+06
     80      1      1     80      0.1576          0.6804E+06
     81      1      1     81      0.1510          0.6804E+06
     82      1      1     82      0.1439          0.6804E+06
     83      1      1     83      0.1376          0.6804E+06
     84      1      1     84      0.1302          0.6804E+06
     85      1      1     85      0.1231          0.6804E+06
     86      1      1     86      0.1147          0.6804E+06
     87      1      1     87      0.1067          0.6804E+06
     88      1      1     88      0.9976E-01      0.6804E+06
     89      1      1     89      0.9168E-01      0.6804E+06
     90      1      1     90      0.8364E-01      0.6804E+06
     91      1      1     91      0.7626E-01      0.6804E+06
     92      1      1     92      0.6793E-01      0.6804E+06
     93      1      1     93      0.6125E-01      0.6804E+06
     94      1      1     94      0.5478E-01      0.6804E+06
     95      1      1     95      0.4816E-01      0.6804E+06
     96      1      1     96      0.4179E-01      0.6804E+06
     97      1      1     97      0.3279E-01      0.6804E+06
     98      1      1     98      0.2161E-01      0.6804E+06
     99      1      1     99      0.7204E-02      0.6804E+06
    100      1      1    100       0.000          0.6804E+06
    101      1      2      1      0.3913          0.6804E+06
    102      1      2      2      0.3922          0.6804E+06
    103      1      2      3      0.3938          0.6804E+06
    104      1      2      4      0.3965          0.6804E+06
    105      1      2      5      0.3999          0.6804E+06
    106      1      2      6      0.4025          0.6804E+06
    107      1      2      7      0.4047          0.6804E+06
    108      1      2      8      0.4059          0.6804E+06
    109      1      2      9      0.4053          0.6804E+06
    110      1      2     10      0.4027          0.6804E+06
    111      1      2     11      0.3992          0.6804E+06
    112      1      2     12      0.3938          0.6804E+06
    113      1      2     13      0.3871          0.6804E+06
    114      1      2     14      0.3803          0.6804E+06
    115      1      2     15      0.3704          0.6804E+06
    116      1      2     16      0.3595          0.6804E+06
    117      1      2     17      0.3453          0.6804E+06
    118      1      2     18      0.3303          0.6804E+06
    119      1      2     19      0.3173          0.6804E+06
    120      1      2     20      0.3050          0.6804E+06
    121      1      2     21      0.2960          0.6804E+06
    122      1      2     22      0.2899          0.6804E+06
    123      1      2     23      0.2837          0.6804E+06
    124      1      2     24      0.2789          0.6804E+06
    125      1      2     25      0.2743          0.6804E+06
    126      1      2     26      0.2719          0.6804E+06
    127      1      2     27      0.2726          0.6804E+06
    128      1      2     28      0.2766          0.6804E+06
    129      1      2     29      0.2834          0.6804E+06
    130      1      2     30      0.2910          0.6804E+06
    131      1      2     31      0.3009          0.6804E+06
    132      1      2     32      0.3095          0.6804E+06
    133      1      2     33      0.3174          0.6804E+06
    134      1      2     34      0.3222          0.6804E+06
    135      1      2     35      0.3237          0.6804E+06
    136      1      2     36      0.3243          0.6804E+06
    137      1      2     37      0.3245          0.6804E+06
    138      1      2     38      0.3251          0.6804E+06
    139      1      2     39      0.3265          0.6804E+06
    140      1      2     40      0.3272          0.6804E+06
    141      1      2     41      0.3274          0.6804E+06
    142      1      2     42      0.3280          0.6804E+06
    143      1      2     43      0.3294          0.6804E+06
    144      1      2     44      0.3322          0.6804E+06
    145      1      2     45      0.3351          0.6804E+06
    146      1      2     46      0.3370          0.6804E+06
    147      1      2     47      0.3380          0.6804E+06
    148      1      2     48      0.3379          0.6804E+06
    149      1      2     49      0.3359          0.6804E+06
    150      1      2     50      0.3320          0.6804E+06
    151      1      2     51      0.3275          0.6804E+06
    152      1      2     52      0.3212          0.6804E+06
    153      1      2     53      0.3148          0.6804E+06
    154      1      2     54      0.3071          0.6804E+06
    155      1      2     55      0.2993          0.6804E+06
    156      1      2     56      0.2923          0.6804E+06
    157      1      2     57      0.2846          0.6804E+06
    158      1      2     58      0.2772          0.6804E+06
    159      1      2     59      0.2704          0.6804E+06
    160      1      2     60      0.2623          0.6804E+06
    161      1      2     61      0.2555          0.6804E+06
    162      1      2     62      0.2482          0.6804E+06
    163      1      2     63      0.2412          0.6804E+06
    164      1      2     64      0.2355          0.6804E+06
    165      1      2     65      0.2296          0.6804E+06
    166      1      2     66      0.2239          0.6804E+06
    167      1      2     67      0.2193          0.6804E+06
    168      1      2     68      0.2143          0.6804E+06
    169      1      2     69      0.2102          0.6804E+06
    170      1      2     70      0.2056          0.6804E+06
    171      1      2     71      0.2012          0.6804E+06
    172      1      2     72      0.1974          0.6804E+06
    173      1      2     73      0.1926          0.6804E+06
    174      1      2     74      0.1874          0.6804E+06
    175      1      2     75      0.1824          0.6804E+06
    176      1      2     76      0.1762          0.6804E+06
    177      1      2     77      0.1705          0.6804E+06
    178      1      2     78      0.1635          0.6804E+06
    179      1      2     79      0.1561          0.6804E+06
    180      1      2     80      0.1499          0.6804E+06
    181      1      2     81      0.1434          0.6804E+06
    182      1      2     82      0.1360          0.6804E+06
    183      1      2     83      0.1293          0.6804E+06
    184      1      2     84      0.1214          0.6804E+06
    185      1      2     85      0.1141          0.6804E+06
    186      1      2     86      0.1061          0.6804E+06
    187      1      2     87      0.9897E-01      0.6804E+06
    188      1      2     88      0.9295E-01      0.6804E+06
    189      1      2     89      0.8604E-01      0.6804E+06
    190      1      2     90      0.7935E-01      0.6804E+06
    191      1      2     91      0.7276E-01      0.6804E+06
    192      1      2     92      0.6489E-01      0.6804E+06
    193      1      2     93      0.5824E-01      0.6804E+06
    194      1      2     94      0.5107E-01      0.6804E+06
    195      1      2     95      0.4232E-01      0.6804E+06
    196      1      2     96      0.3331E-01      0.6804E+06
    197      1      2     97      0.2064E-01      0.6804E+06
    198      1      2     98      0.8544E-02      0.6804E+06
    199      1      2     99       0.000          0.6804E+06
    200      1      2    100     -0.5911E-01      0.6804E+06
    201      1      3      1      0.4115          0.6804E+06
    202      1      3      2      0.4113          0.6804E+06
    203      1      3      3      0.4120          0.6804E+06
    204      1      3      4      0.4138          0.6804E+06
    205      1      3      5      0.4163          0.6804E+06
    206      1      3      6      0.4181          0.6804E+06
    207      1      3      7      0.4195          0.6804E+06
    208      1      3      8      0.4196          0.6804E+06
    209      1      3      9      0.4177          0.6804E+06
    210      1      3     10      0.4133          0.6804E+06
    211      1      3     11      0.4082          0.6804E+06
    212      1      3     12      0.4012          0.6804E+06
    213      1      3     13      0.3932          0.6804E+06
    214      1      3     14      0.3854          0.6804E+06
    215      1      3     15      0.3752          0.6804E+06
    216      1      3     16      0.3652          0.6804E+06
    217      1      3     17      0.3530          0.6804E+06
    218      1      3     18      0.3404          0.6804E+06
    219      1      3     19      0.3296          0.6804E+06
    220      1      3     20      0.3182          0.6804E+06
    221      1      3     21      0.3077          0.6804E+06
    222      1      3     22      0.2987          0.6804E+06
    223      1      3     23      0.2890          0.6804E+06
    224      1      3     24      0.2810          0.6804E+06
    225      1      3     25      0.2728          0.6804E+06
    226      1      3     26      0.2669          0.6804E+06
    227      1      3     27      0.2660          0.6804E+06
    228      1      3     28      0.2689          0.6804E+06
    229      1      3     29      0.2754          0.6804E+06
    230      1      3     30      0.2834          0.6804E+06
    231      1      3     31      0.2948          0.6804E+06
    232      1      3     32      0.3052          0.6804E+06
    233      1      3     33      0.3141          0.6804E+06
    234      1      3     34      0.3172          0.6804E+06
    235      1      3     35      0.3143          0.6804E+06
    236      1      3     36      0.3098          0.6804E+06
    237      1      3     37      0.3063          0.6804E+06
    238      1      3     38      0.3061          0.6804E+06
    239      1      3     39      0.3091          0.6804E+06
    240      1      3     40      0.3112          0.6804E+06
    241      1      3     41      0.3127          0.6804E+06
    242      1      3     42      0.3144          0.6804E+06
    243      1      3     43      0.3167          0.6804E+06
    244      1      3     44      0.3204          0.6804E+06
    245      1      3     45      0.3245          0.6804E+06
    246      1      3     46      0.3277          0.6804E+06
    247      1      3     47      0.3305          0.6804E+06
    248      1      3     48      0.3315          0.6804E+06
    249      1      3     49      0.3295          0.6804E+06
    250      1      3     50      0.3247          0.6804E+06
    251      1      3     51      0.3192          0.6804E+06
    252      1      3     52      0.3122          0.6804E+06
    253      1      3     53      0.3055          0.6804E+06
    254      1      3     54      0.2977          0.6804E+06
    255      1      3     55      0.2900          0.6804E+06
    256      1      3     56      0.2831          0.6804E+06
    257      1      3     57      0.2759          0.6804E+06
    258      1      3     58      0.2683          0.6804E+06
    259      1      3     59      0.2612          0.6804E+06
    260      1      3     60      0.2535          0.6804E+06
    261      1      3     61      0.2472          0.6804E+06
    262      1      3     62      0.2403          0.6804E+06
    263      1      3     63      0.2336          0.6804E+06
    264      1      3     64      0.2280          0.6804E+06
    265      1      3     65      0.2220          0.6804E+06
    266      1      3     66      0.2162          0.6804E+06
    267      1      3     67      0.2112          0.6804E+06
    268      1      3     68      0.2060          0.6804E+06
    269      1      3     69      0.2019          0.6804E+06
    270      1      3     70      0.1975          0.6804E+06
    271      1      3     71      0.1934          0.6804E+06
    272      1      3     72      0.1897          0.6804E+06
    273      1      3     73      0.1853          0.6804E+06
    274      1      3     74      0.1810          0.6804E+06
    275      1      3     75      0.1767          0.6804E+06
    276      1      3     76      0.1706          0.6804E+06
    277      1      3     77      0.1643          0.6804E+06
    278      1      3     78      0.1565          0.6804E+06
    279      1      3     79      0.1488          0.6804E+06
    280      1      3     80      0.1425          0.6804E+06
    281      1      3     81      0.1357          0.6804E+06
    282      1      3     82      0.1279          0.6804E+06
    283      1      3     83      0.1208          0.6804E+06
    284      1      3     84      0.1125          0.6804E+06
    285      1      3     85      0.1051          0.6804E+06
    286      1      3     86      0.9746E-01      0.6804E+06
    287      1      3     87      0.9132E-01      0.6804E+06
    288      1      3     88      0.8641E-01      0.6804E+06
    289      1      3     89      0.8056E-01      0.6804E+06
    290      1      3     90      0.7421E-01      0.6804E+06
    291      1      3     91      0.6800E-01      0.6804E+06
    292      1      3     92      0.6032E-01      0.6804E+06
    293      1      3     93      0.5337E-01      0.6804E+06
    294      1      3     94      0.4518E-01      0.6804E+06
    295      1      3     95      0.3411E-01      0.6804E+06
    296      1      3     96      0.2197E-01      0.6804E+06
    297      1      3     97      0.8253E-02      0.6804E+06
    298      1      3     98       0.000          0.6804E+06
    299      1      3     99     -0.5216E-01      0.6804E+06
    300      1      3    100     -0.8953E-01      0.6804E+06
    301      1      4      1      0.4282          0.6804E+06
    302      1      4      2      0.4272          0.6804E+06
    303      1      4      3      0.4272          0.6804E+06
    304      1      4      4      0.4282          0.6804E+06
    305      1      4      5      0.4300          0.6804E+06
    306      1      4      6      0.4313          0.6804E+06
    307      1      4      7      0.4321          0.6804E+06
    308      1      4      8      0.4313          0.6804E+06
    309      1      4      9      0.4281          0.6804E+06
    310      1      4     10      0.4220          0.6804E+06
    311      1      4     11      0.4155          0.6804E+06
    312      1      4     12      0.4071          0.6804E+06
    313      1      4     13      0.3978          0.6804E+06
    314      1      4     14      0.3892          0.6804E+06
    315      1      4     15      0.3790          0.6804E+06
    316      1      4     16      0.3698          0.6804E+06
    317      1      4     17      0.3590          0.6804E+06
    318      1      4     18      0.3485          0.6804E+06
    319      1      4     19      0.3396          0.6804E+06
    320      1      4     20      0.3291          0.6804E+06
    321      1      4     21      0.3177          0.6804E+06
    322      1      4     22      0.3063          0.6804E+06
    323      1      4     23      0.2937          0.6804E+06
    324      1      4     24      0.2832          0.6804E+06
    325      1      4     25      0.2722          0.6804E+06
    326      1      4     26      0.2635          0.6804E+06
    327      1      4     27      0.2601          0.6804E+06
    328      1      4     28      0.2609          0.6804E+06
    329      1      4     29      0.2663          0.6804E+06
    330      1      4     30      0.2744          0.6804E+06
    331      1      4     31      0.2869          0.6804E+06
    332      1      4     32      0.2993          0.6804E+06
    333      1      4     33      0.3096          0.6804E+06
    334      1      4     34      0.3110          0.6804E+06
    335      1      4     35      0.3032          0.6804E+06
    336      1      4     36      0.2932          0.6804E+06
    337      1      4     37      0.2859          0.6804E+06
    338      1      4     38      0.2843          0.6804E+06
    339      1      4     39      0.2885          0.6804E+06
    340      1      4     40      0.2922          0.6804E+06
    341      1      4     41      0.2958          0.6804E+06
    342      1      4     42      0.2994          0.6804E+06
    343      1      4     43      0.3028          0.6804E+06
    344      1      4     44      0.3075          0.6804E+06
    345      1      4     45      0.3127          0.6804E+06
    346      1      4     46      0.3173          0.6804E+06
    347      1      4     47      0.3220          0.6804E+06
    348      1      4     48      0.3246          0.6804E+06
    349      1      4     49      0.3225          0.6804E+06
    350      1      4     50      0.3165          0.6804E+06
    351      1      4     51      0.3102          0.6804E+06
    352      1      4     52      0.3029          0.6804E+06
    353      1      4     53      0.2960          0.6804E+06
    354      1      4     54      0.2882          0.6804E+06
    355      1      4     55      0.2807          0.6804E+06
    356      1      4     56      0.2739          0.6804E+06
    357      1      4     57      0.2670          0.6804E+06
    358      1      4     58      0.2597          0.6804E+06
    359      1      4     59      0.2527          0.6804E+06
    360      1      4     60      0.2454          0.6804E+06
    361      1      4     61      0.2396          0.6804E+06
    362      1      4     62      0.2330          0.6804E+06
    363      1      4     63      0.2264          0.6804E+06
    364      1      4     64      0.2209          0.6804E+06
    365      1      4     65      0.2149          0.6804E+06
    366      1      4     66      0.2088          0.6804E+06
    367      1      4     67      0.2037          0.6804E+06
    368      1      4     68      0.1984          0.6804E+06
    369      1      4     69      0.1942          0.6804E+06
    370      1      4     70      0.1899          0.6804E+06
    371      1      4     71      0.1859          0.6804E+06
    372      1      4     72      0.1821          0.6804E+06
    373      1      4     73      0.1782          0.6804E+06
    374      1      4     74      0.1748          0.6804E+06
    375      1      4     75      0.1712          0.6804E+06
    376      1      4     76      0.1655          0.6804E+06
    377      1      4     77      0.1584          0.6804E+06
    378      1      4     78      0.1499          0.6804E+06
    379      1      4     79      0.1419          0.6804E+06
    380      1      4     80      0.1356          0.6804E+06
    381      1      4     81      0.1282          0.6804E+06
    382      1      4     82      0.1203          0.6804E+06
    383      1      4     83      0.1132          0.6804E+06
    384      1      4     84      0.1050          0.6804E+06
    385      1      4     85      0.9767E-01      0.6804E+06
    386      1      4     86      0.9029E-01      0.6804E+06
    387      1      4     87      0.8503E-01      0.6804E+06
    388      1      4     88      0.8086E-01      0.6804E+06
    389      1      4     89      0.7507E-01      0.6804E+06
    390      1      4     90      0.6880E-01      0.6804E+06
    391      1      4     91      0.6320E-01      0.6804E+06
    392      1      4     92      0.5551E-01      0.6804E+06
    393      1      4     93      0.4725E-01      0.6804E+06
    394      1      4     94      0.3691E-01      0.6804E+06
    395      1      4     95      0.2342E-01      0.6804E+06
    396      1      4     96      0.1036E-01      0.6804E+06
    397      1      4     97       0.000          0.6804E+06
    398      1      4     98     -0.4253E-01      0.6804E+06
    399      1      4     99     -0.8103E-01      0.6804E+06
    400      1      4    100     -0.1109          0.6804E+06
    401      1      5      1      0.4453          0.6804E+06
    402      1      5      2      0.4436          0.6804E+06
    403      1      5      3      0.4430          0.6804E+06
    404      1      5      4      0.4434          0.6804E+06
    405      1      5      5      0.4446          0.6804E+06
    406      1      5      6      0.4452          0.6804E+06
    407      1      5      7      0.4452          0.6804E+06
    408      1      5      8      0.4432          0.6804E+06
    409      1      5      9      0.4387          0.6804E+06
    410      1      5     10      0.4308          0.6804E+06
    411      1      5     11      0.4229          0.6804E+06
    412      1      5     12      0.4129          0.6804E+06
    413      1      5     13      0.4023          0.6804E+06
    414      1      5     14      0.3928          0.6804E+06
    415      1      5     15      0.3826          0.6804E+06
    416      1      5     16      0.3740          0.6804E+06
    417      1      5     17      0.3645          0.6804E+06
    418      1      5     18      0.3556          0.6804E+06
    419      1      5     19      0.3482          0.6804E+06
    420      1      5     20      0.3386          0.6804E+06
    421      1      5     21      0.3264          0.6804E+06
    422      1      5     22      0.3132          0.6804E+06
    423      1      5     23      0.2982          0.6804E+06
    424      1      5     24      0.2856          0.6804E+06
    425      1      5     25      0.2722          0.6804E+06
    426      1      5     26      0.2606          0.6804E+06
    427      1      5     27      0.2535          0.6804E+06
    428      1      5     28      0.2501          0.6804E+06
    429      1      5     29      0.2527          0.6804E+06
    430      1      5     30      0.2603          0.6804E+06
    431      1      5     31      0.2733          0.6804E+06
    432      1      5     32      0.2867          0.6804E+06
    433      1      5     33      0.2980          0.6804E+06
    434      1      5     34      0.2977          0.6804E+06
    435      1      5     35      0.2846          0.6804E+06
    436      1      5     36      0.2692          0.6804E+06
    437      1      5     37      0.2578          0.6804E+06
    438      1      5     38      0.2544          0.6804E+06
    439      1      5     39      0.2603          0.6804E+06
    440      1      5     40      0.2662          0.6804E+06
    441      1      5     41      0.2728          0.6804E+06
    442      1      5     42      0.2792          0.6804E+06
    443      1      5     43      0.2844          0.6804E+06
    444      1      5     44      0.2903          0.6804E+06
    445      1      5     45      0.2966          0.6804E+06
    446      1      5     46      0.3023          0.6804E+06
    447      1      5     47      0.3086          0.6804E+06
    448      1      5     48      0.3128          0.6804E+06
    449      1      5     49      0.3109          0.6804E+06
    450      1      5     50      0.3040          0.6804E+06
    451      1      5     51      0.2975          0.6804E+06
    452      1      5     52      0.2902          0.6804E+06
    453      1      5     53      0.2835          0.6804E+06
    454      1      5     54      0.2760          0.6804E+06
    455      1      5     55      0.2686          0.6804E+06
    456      1      5     56      0.2622          0.6804E+06
    457      1      5     57      0.2559          0.6804E+06
    458      1      5     58      0.2489          0.6804E+06
    459      1      5     59      0.2421          0.6804E+06
    460      1      5     60      0.2355          0.6804E+06
    461      1      5     61      0.2301          0.6804E+06
    462      1      5     62      0.2240          0.6804E+06
    463      1      5     63      0.2177          0.6804E+06
    464      1      5     64      0.2123          0.6804E+06
    465      1      5     65      0.2062          0.6804E+06
    466      1      5     66      0.1997          0.6804E+06
    467      1      5     67      0.1943          0.6804E+06
    468      1      5     68      0.1890          0.6804E+06
    469      1      5     69      0.1849          0.6804E+06
    470      1      5     70      0.1802          0.6804E+06
    471      1      5     71      0.1760          0.6804E+06
    472      1      5     72      0.1725          0.6804E+06
    473      1      5     73      0.1692          0.6804E+06
    474      1      5     74      0.1664          0.6804E+06
    475      1      5     75      0.1635          0.6804E+06
    476      1      5     76      0.1581          0.6804E+06
    477      1      5     77      0.1502          0.6804E+06
    478      1      5     78      0.1412          0.6804E+06
    479      1      5     79      0.1330          0.6804E+06
    480      1      5     80      0.1265          0.6804E+06
    481      1      5     81      0.1188          0.6804E+06
    482      1      5     82      0.1113          0.6804E+06
    483      1      5     83      0.1048          0.6804E+06
    484      1      5     84      0.9716E-01      0.6804E+06
    485      1      5     85      0.9037E-01      0.6804E+06
    486      1      5     86      0.8347E-01      0.6804E+06
    487      1      5     87      0.7887E-01      0.6804E+06
    488      1      5     88      0.7524E-01      0.6804E+06
    489      1      5     89      0.6925E-01      0.6804E+06
    490      1      5     90      0.6233E-01      0.6804E+06
    491      1      5     91      0.5570E-01      0.6804E+06
    492      1      5     92      0.4648E-01      0.6804E+06
    493      1      5     93      0.3665E-01      0.6804E+06
    494      1      5     94      0.2376E-01      0.6804E+06
    495      1      5     95      0.8694E-02      0.6804E+06
    496      1      5     96       0.000          0.6804E+06
    497      1      5     97     -0.4517E-01      0.6804E+06
    498      1      5     98     -0.7794E-01      0.6804E+06
    499      1      5     99     -0.1048          0.6804E+06
    500      1      5    100     -0.1273          0.6804E+06
    501      1      6      1      0.4592          0.6804E+06
    502      1      6      2      0.4575          0.6804E+06
    503      1      6      3      0.4568          0.6804E+06
    504      1      6      4      0.4569          0.6804E+06
    505      1      6      5      0.4576          0.6804E+06
    506      1      6      6      0.4576          0.6804E+06
    507      1      6      7      0.4564          0.6804E+06
    508      1      6      8      0.4529          0.6804E+06
    509      1      6      9      0.4471          0.6804E+06
    510      1      6     10      0.4379          0.6804E+06
    511      1      6     11      0.4288          0.6804E+06
    512      1      6     12      0.4175          0.6804E+06
    513      1      6     13      0.4057          0.6804E+06
    514      1      6     14      0.3954          0.6804E+06
    515      1      6     15      0.3848          0.6804E+06
    516      1      6     16      0.3764          0.6804E+06
    517      1      6     17      0.3675          0.6804E+06
    518      1      6     18      0.3596          0.6804E+06
    519      1      6     19      0.3529          0.6804E+06
    520      1      6     20      0.3437          0.6804E+06
    521      1      6     21      0.3313          0.6804E+06
    522      1      6     22      0.3174          0.6804E+06
    523      1      6     23      0.3012          0.6804E+06
    524      1      6     24      0.2873          0.6804E+06
    525      1      6     25      0.2721          0.6804E+06
    526      1      6     26      0.2579          0.6804E+06
    527      1      6     27      0.2468          0.6804E+06
    528      1      6     28      0.2375          0.6804E+06
    529      1      6     29      0.2358          0.6804E+06
    530      1      6     30      0.2433          0.6804E+06
    531      1      6     31      0.2552          0.6804E+06
    532      1      6     32      0.2661          0.6804E+06
    533      1      6     33      0.2736          0.6804E+06
    534      1      6     34      0.2703          0.6804E+06
    535      1      6     35      0.2579          0.6804E+06
    536      1      6     36      0.2425          0.6804E+06
    537      1      6     37      0.2308          0.6804E+06
    538      1      6     38      0.2276          0.6804E+06
    539      1      6     39      0.2336          0.6804E+06
    540      1      6     40      0.2408          0.6804E+06
    541      1      6     41      0.2494          0.6804E+06
    542      1      6     42      0.2578          0.6804E+06
    543      1      6     43      0.2642          0.6804E+06
    544      1      6     44      0.2710          0.6804E+06
    545      1      6     45      0.2777          0.6804E+06
    546      1      6     46      0.2835          0.6804E+06
    547      1      6     47      0.2896          0.6804E+06
    548      1      6     48      0.2936          0.6804E+06
    549      1      6     49      0.2927          0.6804E+06
    550      1      6     50      0.2871          0.6804E+06
    551      1      6     51      0.2816          0.6804E+06
    552      1      6     52      0.2751          0.6804E+06
    553      1      6     53      0.2692          0.6804E+06
    554      1      6     54      0.2623          0.6804E+06
    555      1      6     55      0.2554          0.6804E+06
    556      1      6     56      0.2499          0.6804E+06
    557      1      6     57      0.2436          0.6804E+06
    558      1      6     58      0.2368          0.6804E+06
    559      1      6     59      0.2306          0.6804E+06
    560      1      6     60      0.2248          0.6804E+06
    561      1      6     61      0.2198          0.6804E+06
    562      1      6     62      0.2142          0.6804E+06
    563      1      6     63      0.2083          0.6804E+06
    564      1      6     64      0.2030          0.6804E+06
    565      1      6     65      0.1966          0.6804E+06
    566      1      6     66      0.1899          0.6804E+06
    567      1      6     67      0.1844          0.6804E+06
    568      1      6     68      0.1791          0.6804E+06
    569      1      6     69      0.1746          0.6804E+06
    570      1      6     70      0.1696          0.6804E+06
    571      1      6     71      0.1653          0.6804E+06
    572      1      6     72      0.1621          0.6804E+06
    573      1      6     73      0.1586          0.6804E+06
    574      1      6     74      0.1553          0.6804E+06
    575      1      6     75      0.1518          0.6804E+06
    576      1      6     76      0.1462          0.6804E+06
    577      1      6     77      0.1390          0.6804E+06
    578      1      6     78      0.1307          0.6804E+06
    579      1      6     79      0.1224          0.6804E+06
    580      1      6     80      0.1156          0.6804E+06
    581      1      6     81      0.1086          0.6804E+06
    582      1      6     82      0.1021          0.6804E+06
    583      1      6     83      0.9642E-01      0.6804E+06
    584      1      6     84      0.8988E-01      0.6804E+06
    585      1      6     85      0.8392E-01      0.6804E+06
    586      1      6     86      0.7780E-01      0.6804E+06
    587      1      6     87      0.7317E-01      0.6804E+06
    588      1      6     88      0.6907E-01      0.6804E+06
    589      1      6     89      0.6223E-01      0.6804E+06
    590      1      6     90      0.5410E-01      0.6804E+06
    591      1      6     91      0.4560E-01      0.6804E+06
    592      1      6     92      0.3384E-01      0.6804E+06
    593      1      6     93      0.2190E-01      0.6804E+06
    594      1      6     94      0.7307E-02      0.6804E+06
    595      1      6     95       0.000          0.6804E+06
    596      1      6     96     -0.4403E-01      0.6804E+06
    597      1      6     97     -0.7934E-01      0.6804E+06
    598      1      6     98     -0.1005          0.6804E+06
    599      1      6     99     -0.1220          0.6804E+06
    600      1      6    100     -0.1407          0.6804E+06
    601      1      7      1      0.4692          0.6804E+06
    602      1      7      2      0.4678          0.6804E+06
    603      1      7      3      0.4673          0.6804E+06
    604      1      7      4      0.4673          0.6804E+06
    605      1      7      5      0.4678          0.6804E+06
    606      1      7      6      0.4675          0.6804E+06
    607      1      7      7      0.4654          0.6804E+06
    608      1      7      8      0.4607          0.6804E+06
    609      1      7      9      0.4535          0.6804E+06
    610      1      7     10      0.4428          0.6804E+06
    611      1      7     11      0.4324          0.6804E+06
    612      1      7     12      0.4200          0.6804E+06
    613      1      7     13      0.4075          0.6804E+06
    614      1      7     14      0.3967          0.6804E+06
    615      1      7     15      0.3853          0.6804E+06
    616      1      7     16      0.3763          0.6804E+06
    617      1      7     17      0.3674          0.6804E+06
    618      1      7     18      0.3599          0.6804E+06
    619      1      7     19      0.3536          0.6804E+06
    620      1      7     20      0.3446          0.6804E+06
    621      1      7     21      0.3322          0.6804E+06
    622      1      7     22      0.3185          0.6804E+06
    623      1      7     23      0.3020          0.6804E+06
    624      1      7     24      0.2876          0.6804E+06
    625      1      7     25      0.2716          0.6804E+06
    626      1      7     26      0.2556          0.6804E+06
    627      1      7     27      0.2417          0.6804E+06
    628      1      7     28      0.2279          0.6804E+06
    629      1      7     29      0.2224          0.6804E+06
    630      1      7     30      0.2290          0.6804E+06
    631      1      7     31      0.2387          0.6804E+06
    632      1      7     32      0.2458          0.6804E+06
    633      1      7     33      0.2490          0.6804E+06
    634      1      7     34      0.2435          0.6804E+06
    635      1      7     35      0.2324          0.6804E+06
    636      1      7     36      0.2182          0.6804E+06
    637      1      7     37      0.2076          0.6804E+06
    638      1      7     38      0.2055          0.6804E+06
    639      1      7     39      0.2120          0.6804E+06
    640      1      7     40      0.2202          0.6804E+06
    641      1      7     41      0.2302          0.6804E+06
    642      1      7     42      0.2396          0.6804E+06
    643      1      7     43      0.2465          0.6804E+06
    644      1      7     44      0.2532          0.6804E+06
    645      1      7     45      0.2596          0.6804E+06
    646      1      7     46      0.2646          0.6804E+06
    647      1      7     47      0.2694          0.6804E+06
    648      1      7     48      0.2724          0.6804E+06
    649      1      7     49      0.2725          0.6804E+06
    650      1      7     50      0.2693          0.6804E+06
    651      1      7     51      0.2655          0.6804E+06
    652      1      7     52      0.2603          0.6804E+06
    653      1      7     53      0.2552          0.6804E+06
    654      1      7     54      0.2492          0.6804E+06
    655      1      7     55      0.2433          0.6804E+06
    656      1      7     56      0.2387          0.6804E+06
    657      1      7     57      0.2320          0.6804E+06
    658      1      7     58      0.2252          0.6804E+06
    659      1      7     59      0.2201          0.6804E+06
    660      1      7     60      0.2147          0.6804E+06
    661      1      7     61      0.2102          0.6804E+06
    662      1      7     62      0.2050          0.6804E+06
    663      1      7     63      0.1995          0.6804E+06
    664      1      7     64      0.1944          0.6804E+06
    665      1      7     65      0.1876          0.6804E+06
    666      1      7     66      0.1807          0.6804E+06
    667      1      7     67      0.1752          0.6804E+06
    668      1      7     68      0.1696          0.6804E+06
    669      1      7     69      0.1648          0.6804E+06
    670      1      7     70      0.1599          0.6804E+06
    671      1      7     71      0.1556          0.6804E+06
    672      1      7     72      0.1519          0.6804E+06
    673      1      7     73      0.1477          0.6804E+06
    674      1      7     74      0.1436          0.6804E+06
    675      1      7     75      0.1396          0.6804E+06
    676      1      7     76      0.1340          0.6804E+06
    677      1      7     77      0.1278          0.6804E+06
    678      1      7     78      0.1201          0.6804E+06
    679      1      7     79      0.1119          0.6804E+06
    680      1      7     80      0.1052          0.6804E+06
    681      1      7     81      0.9924E-01      0.6804E+06
    682      1      7     82      0.9380E-01      0.6804E+06
    683      1      7     83      0.8900E-01      0.6804E+06
    684      1      7     84      0.8319E-01      0.6804E+06
    685      1      7     85      0.7770E-01      0.6804E+06
    686      1      7     86      0.7259E-01      0.6804E+06
    687      1      7     87      0.6745E-01      0.6804E+06
    688      1      7     88      0.6189E-01      0.6804E+06
    689      1      7     89      0.5383E-01      0.6804E+06
    690      1      7     90      0.4454E-01      0.6804E+06
    691      1      7     91      0.3432E-01      0.6804E+06
    692      1      7     92      0.1993E-01      0.6804E+06
    693      1      7     93      0.6895E-02      0.6804E+06
    694      1      7     94       0.000          0.6804E+06
    695      1      7     95       0.000          0.6804E+06
    696      1      7     96     -0.7501E-01      0.6804E+06
    697      1      7     97     -0.9975E-01      0.6804E+06
    698      1      7     98     -0.1192          0.6804E+06
    699      1      7     99     -0.1401          0.6804E+06
    700      1      7    100     -0.1727          0.6804E+06
    701      1      8      1      0.4782          0.6804E+06
    702      1      8      2      0.4776          0.6804E+06
    703      1      8      3      0.4773          0.6804E+06
    704      1      8      4      0.4775          0.6804E+06
    705      1      8      5      0.4779          0.6804E+06
    706      1      8      6      0.4775          0.6804E+06
    707      1      8      7      0.4750          0.6804E+06
    708      1      8      8      0.4691          0.6804E+06
    709      1      8      9      0.4599          0.6804E+06
    710      1      8     10      0.4463          0.6804E+06
    711      1      8     11      0.4339          0.6804E+06
    712      1      8     12      0.4201          0.6804E+06
    713      1      8     13      0.4072          0.6804E+06
    714      1      8     14      0.3957          0.6804E+06
    715      1      8     15      0.3828          0.6804E+06
    716      1      8     16      0.3726          0.6804E+06
    717      1      8     17      0.3634          0.6804E+06
    718      1      8     18      0.3565          0.6804E+06
    719      1      8     19      0.3515          0.6804E+06
    720      1      8     20      0.3437          0.6804E+06
    721      1      8     21      0.3314          0.6804E+06
    722      1      8     22      0.3171          0.6804E+06
    723      1      8     23      0.3002          0.6804E+06
    724      1      8     24      0.2859          0.6804E+06
    725      1      8     25      0.2702          0.6804E+06
    726      1      8     26      0.2537          0.6804E+06
    727      1      8     27      0.2385          0.6804E+06
    728      1      8     28      0.2238          0.6804E+06
    729      1      8     29      0.2161          0.6804E+06
    730      1      8     30      0.2177          0.6804E+06
    731      1      8     31      0.2223          0.6804E+06
    732      1      8     32      0.2251          0.6804E+06
    733      1      8     33      0.2242          0.6804E+06
    734      1      8     34      0.2165          0.6804E+06
    735      1      8     35      0.2050          0.6804E+06
    736      1      8     36      0.1907          0.6804E+06
    737      1      8     37      0.1806          0.6804E+06
    738      1      8     38      0.1804          0.6804E+06
    739      1      8     39      0.1894          0.6804E+06
    740      1      8     40      0.1993          0.6804E+06
    741      1      8     41      0.2107          0.6804E+06
    742      1      8     42      0.2206          0.6804E+06
    743      1      8     43      0.2273          0.6804E+06
    744      1      8     44      0.2332          0.6804E+06
    745      1      8     45      0.2384          0.6804E+06
    746      1      8     46      0.2423          0.6804E+06
    747      1      8     47      0.2454          0.6804E+06
    748      1      8     48      0.2477          0.6804E+06
    749      1      8     49      0.2489          0.6804E+06
    750      1      8     50      0.2478          0.6804E+06
    751      1      8     51      0.2458          0.6804E+06
    752      1      8     52      0.2425          0.6804E+06
    753      1      8     53      0.2386          0.6804E+06
    754      1      8     54      0.2335          0.6804E+06
    755      1      8     55      0.2283          0.6804E+06
    756      1      8     56      0.2247          0.6804E+06
    757      1      8     57      0.2183          0.6804E+06
    758      1      8     58      0.2117          0.6804E+06
    759      1      8     59      0.2076          0.6804E+06
    760      1      8     60      0.2026          0.6804E+06
    761      1      8     61      0.1985          0.6804E+06
    762      1      8     62      0.1937          0.6804E+06
    763      1      8     63      0.1886          0.6804E+06
    764      1      8     64      0.1836          0.6804E+06
    765      1      8     65      0.1765          0.6804E+06
    766      1      8     66      0.1693          0.6804E+06
    767      1      8     67      0.1637          0.6804E+06
    768      1      8     68      0.1579          0.6804E+06
    769      1      8     69      0.1530          0.6804E+06
    770      1      8     70      0.1482          0.6804E+06
    771      1      8     71      0.1438          0.6804E+06
    772      1      8     72      0.1393          0.6804E+06
    773      1      8     73      0.1341          0.6804E+06
    774      1      8     74      0.1293          0.6804E+06
    775      1      8     75      0.1250          0.6804E+06
    776      1      8     76      0.1197          0.6804E+06
    777      1      8     77      0.1147          0.6804E+06
    778      1      8     78      0.1079          0.6804E+06
    779      1      8     79      0.1000          0.6804E+06
    780      1      8     80      0.9346E-01      0.6804E+06
    781      1      8     81      0.8885E-01      0.6804E+06
    782      1      8     82      0.8443E-01      0.6804E+06
    783      1      8     83      0.8025E-01      0.6804E+06
    784      1      8     84      0.7495E-01      0.6804E+06
    785      1      8     85      0.6975E-01      0.6804E+06
    786      1      8     86      0.6418E-01      0.6804E+06
    787      1      8     87      0.5803E-01      0.6804E+06
    788      1      8     88      0.5140E-01      0.6804E+06
    789      1      8     89      0.4222E-01      0.6804E+06
    790      1      8     90      0.3136E-01      0.6804E+06
    791      1      8     91      0.1844E-01      0.6804E+06
    792      1      8     92      0.1865E-02      0.6804E+06
    793      1      8     93       0.000          0.6804E+06
    794      1      8     94       0.000          0.6804E+06
    795      1      8     95     -0.8038E-01      0.6804E+06
    796      1      8     96     -0.1007          0.6804E+06
    797      1      8     97     -0.1204          0.6804E+06
    798      1      8     98     -0.1363          0.6804E+06
    799      1      8     99     -0.1683          0.6804E+06
    800      1      8    100     -0.2581          0.6804E+06
    801      1      9      1      0.4846          0.6804E+06
    802      1      9      2      0.4845          0.6804E+06
    803      1      9      3      0.4845          0.6804E+06
    804      1      9      4      0.4848          0.6804E+06
    805      1      9      5      0.4851          0.6804E+06
    806      1      9      6      0.4846          0.6804E+06
    807      1      9      7      0.4824          0.6804E+06
    808      1      9      8      0.4759          0.6804E+06
    809      1      9      9      0.4639          0.6804E+06
    810      1      9     10      0.4469          0.6804E+06
    811      1      9     11      0.4321          0.6804E+06
    812      1      9     12      0.4168          0.6804E+06
    813      1      9     13      0.4038          0.6804E+06
    814      1      9     14      0.3913          0.6804E+06
    815      1      9     15      0.3767          0.6804E+06
    816      1      9     16      0.3652          0.6804E+06
    817      1      9     17      0.3556          0.6804E+06
    818      1      9     18      0.3493          0.6804E+06
    819      1      9     19      0.3456          0.6804E+06
    820      1      9     20      0.3394          0.6804E+06
    821      1      9     21      0.3271          0.6804E+06
    822      1      9     22      0.3120          0.6804E+06
    823      1      9     23      0.2950          0.6804E+06
    824      1      9     24      0.2811          0.6804E+06
    825      1      9     25      0.2665          0.6804E+06
    826      1      9     26      0.2508          0.6804E+06
    827      1      9     27      0.2357          0.6804E+06
    828      1      9     28      0.2211          0.6804E+06
    829      1      9     29      0.2124          0.6804E+06
    830      1      9     30      0.2106          0.6804E+06
    831      1      9     31      0.2111          0.6804E+06
    832      1      9     32      0.2110          0.6804E+06
    833      1      9     33      0.2077          0.6804E+06
    834      1      9     34      0.1986          0.6804E+06
    835      1      9     35      0.1858          0.6804E+06
    836      1      9     36      0.1688          0.6804E+06
    837      1      9     37      0.1574          0.6804E+06
    838      1      9     38      0.1597          0.6804E+06
    839      1      9     39      0.1728          0.6804E+06
    840      1      9     40      0.1848          0.6804E+06
    841      1      9     41      0.1968          0.6804E+06
    842      1      9     42      0.2062          0.6804E+06
    843      1      9     43      0.2122          0.6804E+06
    844      1      9     44      0.2168          0.6804E+06
    845      1      9     45      0.2205          0.6804E+06
    846      1      9     46      0.2230          0.6804E+06
    847      1      9     47      0.2249          0.6804E+06
    848      1      9     48      0.2270          0.6804E+06
    849      1      9     49      0.2288          0.6804E+06
    850      1      9     50      0.2291          0.6804E+06
    851      1      9     51      0.2283          0.6804E+06
    852      1      9     52      0.2264          0.6804E+06
    853      1      9     53      0.2234          0.6804E+06
    854      1      9     54      0.2192          0.6804E+06
    855      1      9     55      0.2146          0.6804E+06
    856      1      9     56      0.2109          0.6804E+06
    857      1      9     57      0.2055          0.6804E+06
    858      1      9     58      0.2002          0.6804E+06
    859      1      9     59      0.1961          0.6804E+06
    860      1      9     60      0.1912          0.6804E+06
    861      1      9     61      0.1874          0.6804E+06
    862      1      9     62      0.1830          0.6804E+06
    863      1      9     63      0.1778          0.6804E+06
    864      1      9     64      0.1726          0.6804E+06
    865      1      9     65      0.1657          0.6804E+06
    866      1      9     66      0.1583          0.6804E+06
    867      1      9     67      0.1525          0.6804E+06
    868      1      9     68      0.1473          0.6804E+06
    869      1      9     69      0.1425          0.6804E+06
    870      1      9     70      0.1372          0.6804E+06
    871      1      9     71      0.1322          0.6804E+06
    872      1      9     72      0.1275          0.6804E+06
    873      1      9     73      0.1217          0.6804E+06
    874      1      9     74      0.1164          0.6804E+06
    875      1      9     75      0.1121          0.6804E+06
    876      1      9     76      0.1077          0.6804E+06
    877      1      9     77      0.1036          0.6804E+06
    878      1      9     78      0.9777E-01      0.6804E+06
    879      1      9     79      0.9066E-01      0.6804E+06
    880      1      9     80      0.8461E-01      0.6804E+06
    881      1      9     81      0.8050E-01      0.6804E+06
    882      1      9     82      0.7650E-01      0.6804E+06
    883      1      9     83      0.7250E-01      0.6804E+06
    884      1      9     84      0.6717E-01      0.6804E+06
    885      1      9     85      0.6218E-01      0.6804E+06
    886      1      9     86      0.5563E-01      0.6804E+06
    887      1      9     87      0.4796E-01      0.6804E+06
    888      1      9     88      0.3998E-01      0.6804E+06
    889      1      9     89      0.2944E-01      0.6804E+06
    890      1      9     90      0.1802E-01      0.6804E+06
    891      1      9     91      0.3275E-02      0.6804E+06
    892      1      9     92       0.000          0.6804E+06
    893      1      9     93       0.000          0.6804E+06
    894      1      9     94     -0.7698E-01      0.6804E+06
    895      1      9     95     -0.1038          0.6804E+06
    896      1      9     96     -0.1242          0.6804E+06
    897      1      9     97     -0.1357          0.6804E+06
    898      1      9     98     -0.1550          0.6804E+06
    899      1      9     99     -0.2520          0.6804E+06
    900      1      9    100     -0.2207          0.6804E+06
    901      1     10      1      0.4910          0.6804E+06
    902      1     10      2      0.4909          0.6804E+06
    903      1     10      3      0.4909          0.6804E+06
    904      1     10      4      0.4908          0.6804E+06
    905      1     10      5      0.4905          0.6804E+06
    906      1     10      6      0.4898          0.6804E+06
    907      1     10      7      0.4881          0.6804E+06
    908      1     10      8      0.4815          0.6804E+06
    909      1     10      9      0.4647          0.6804E+06
    910      1     10     10      0.4426          0.6804E+06
    911      1     10     11      0.4242          0.6804E+06
    912      1     10     12      0.4065          0.6804E+06
    913      1     10     13      0.3934          0.6804E+06
    914      1     10     14      0.3794          0.6804E+06
    915      1     10     15      0.3629          0.6804E+06
    916      1     10     16      0.3505          0.6804E+06
    917      1     10     17      0.3411          0.6804E+06
    918      1     10     18      0.3353          0.6804E+06
    919      1     10     19      0.3326          0.6804E+06
    920      1     10     20      0.3275          0.6804E+06
    921      1     10     21      0.3154          0.6804E+06
    922      1     10     22      0.3006          0.6804E+06
    923      1     10     23      0.2842          0.6804E+06
    924      1     10     24      0.2709          0.6804E+06
    925      1     10     25      0.2572          0.6804E+06
    926      1     10     26      0.2427          0.6804E+06
    927      1     10     27      0.2289          0.6804E+06
    928      1     10     28      0.2155          0.6804E+06
    929      1     10     29      0.2067          0.6804E+06
    930      1     10     30      0.2028          0.6804E+06
    931      1     10     31      0.2007          0.6804E+06
    932      1     10     32      0.1990          0.6804E+06
    933      1     10     33      0.1952          0.6804E+06
    934      1     10     34      0.1867          0.6804E+06
    935      1     10     35      0.1746          0.6804E+06
    936      1     10     36      0.1550          0.6804E+06
    937      1     10     37      0.1413          0.6804E+06
    938      1     10     38      0.1471          0.6804E+06
    939      1     10     39      0.1633          0.6804E+06
    940      1     10     40      0.1758          0.6804E+06
    941      1     10     41      0.1863          0.6804E+06
    942      1     10     42      0.1935          0.6804E+06
    943      1     10     43      0.1976          0.6804E+06
    944      1     10     44      0.2002          0.6804E+06
    945      1     10     45      0.2017          0.6804E+06
    946      1     10     46      0.2024          0.6804E+06
    947      1     10     47      0.2028          0.6804E+06
    948      1     10     48      0.2048          0.6804E+06
    949      1     10     49      0.2073          0.6804E+06
    950      1     10     50      0.2087          0.6804E+06
    951      1     10     51      0.2090          0.6804E+06
    952      1     10     52      0.2079          0.6804E+06
    953      1     10     53      0.2058          0.6804E+06
    954      1     10     54      0.2026          0.6804E+06
    955      1     10     55      0.1986          0.6804E+06
    956      1     10     56      0.1948          0.6804E+06
    957      1     10     57      0.1904          0.6804E+06
    958      1     10     58      0.1862          0.6804E+06
    959      1     10     59      0.1821          0.6804E+06
    960      1     10     60      0.1775          0.6804E+06
    961      1     10     61      0.1740          0.6804E+06
    962      1     10     62      0.1699          0.6804E+06
    963      1     10     63      0.1649          0.6804E+06
    964      1     10     64      0.1595          0.6804E+06
    965      1     10     65      0.1526          0.6804E+06
    966      1     10     66      0.1451          0.6804E+06
    967      1     10     67      0.1389          0.6804E+06
    968      1     10     68      0.1335          0.6804E+06
    969      1     10     69      0.1289          0.6804E+06
    970      1     10     70      0.1239          0.6804E+06
    971      1     10     71      0.1190          0.6804E+06
    972      1     10     72      0.1141          0.6804E+06
    973      1     10     73      0.1077          0.6804E+06
    974      1     10     74      0.1018          0.6804E+06
    975      1     10     75      0.9769E-01      0.6804E+06
    976      1     10     76      0.9470E-01      0.6804E+06
    977      1     10     77      0.9187E-01      0.6804E+06
    978      1     10     78      0.8740E-01      0.6804E+06
    979      1     10     79      0.8168E-01      0.6804E+06
    980      1     10     80      0.7663E-01      0.6804E+06
    981      1     10     81      0.7193E-01      0.6804E+06
    982      1     10     82      0.6758E-01      0.6804E+06
    983      1     10     83      0.6340E-01      0.6804E+06
    984      1     10     84      0.5770E-01      0.6804E+06
    985      1     10     85      0.5233E-01      0.6804E+06
    986      1     10     86      0.4414E-01      0.6804E+06
    987      1     10     87      0.3412E-01      0.6804E+06
    988      1     10     88      0.2380E-01      0.6804E+06
    989      1     10     89      0.1137E-01      0.6804E+06
    990      1     10     90       0.000          0.6804E+06
    991      1     10     91       0.000          0.6804E+06
    992      1     10     92       0.000          0.6804E+06
    993      1     10     93     -0.8005E-01      0.6804E+06
    994      1     10     94     -0.1037          0.6804E+06
    995      1     10     95     -0.1303          0.6804E+06
    996      1     10     96     -0.1401          0.6804E+06
    997      1     10     97     -0.1600          0.6804E+06
    998      1     10     98     -0.2419          0.6804E+06
    999      1     10     99     -0.2095          0.6804E+06
   1000      1     10    100     -0.1550          0.6804E+06
   1001      1     11      1      0.4964          0.6804E+06
   1002      1     11      2      0.4960          0.6804E+06
   1003      1     11      3      0.4955          0.6804E+06
   1004      1     11      4      0.4946          0.6804E+06
   1005      1     11      5      0.4931          0.6804E+06
   1006      1     11      6      0.4907          0.6804E+06
   1007      1     11      7      0.4860          0.6804E+06
   1008      1     11      8      0.4755          0.6804E+06
   1009      1     11      9      0.4569          0.6804E+06
   1010      1     11     10      0.4316          0.6804E+06
   1011      1     11     11      0.4092          0.6804E+06
   1012      1     11     12      0.3863          0.6804E+06
   1013      1     11     13      0.3678          0.6804E+06
   1014      1     11     14      0.3528          0.6804E+06
   1015      1     11     15      0.3383          0.6804E+06
   1016      1     11     16      0.3288          0.6804E+06
   1017      1     11     17      0.3209          0.6804E+06
   1018      1     11     18      0.3155          0.6804E+06
   1019      1     11     19      0.3116          0.6804E+06
   1020      1     11     20      0.3054          0.6804E+06
   1021      1     11     21      0.2945          0.6804E+06
   1022      1     11     22      0.2823          0.6804E+06
   1023      1     11     23      0.2679          0.6804E+06
   1024      1     11     24      0.2554          0.6804E+06
   1025      1     11     25      0.2421          0.6804E+06
   1026      1     11     26      0.2289          0.6804E+06
   1027      1     11     27      0.2175          0.6804E+06
   1028      1     11     28      0.2064          0.6804E+06
   1029      1     11     29      0.1986          0.6804E+06
   1030      1     11     30      0.1943          0.6804E+06
   1031      1     11     31      0.1917          0.6804E+06
   1032      1     11     32      0.1902          0.6804E+06
   1033      1     11     33      0.1880          0.6804E+06
   1034      1     11     34      0.1833          0.6804E+06
   1035      1     11     35      0.1763          0.6804E+06
   1036      1     11     36      0.1644          0.6804E+06
   1037      1     11     37      0.1563          0.6804E+06
   1038      1     11     38      0.1601          0.6804E+06
   1039      1     11     39      0.1693          0.6804E+06
   1040      1     11     40      0.1763          0.6804E+06
   1041      1     11     41      0.1815          0.6804E+06
   1042      1     11     42      0.1845          0.6804E+06
   1043      1     11     43      0.1858          0.6804E+06
   1044      1     11     44      0.1860          0.6804E+06
   1045      1     11     45      0.1852          0.6804E+06
   1046      1     11     46      0.1835          0.6804E+06
   1047      1     11     47      0.1819          0.6804E+06
   1048      1     11     48      0.1839          0.6804E+06
   1049      1     11     49      0.1876          0.6804E+06
   1050      1     11     50      0.1900          0.6804E+06
   1051      1     11     51      0.1909          0.6804E+06
   1052      1     11     52      0.1907          0.6804E+06
   1053      1     11     53      0.1891          0.6804E+06
   1054      1     11     54      0.1861          0.6804E+06
   1055      1     11     55      0.1827          0.6804E+06
   1056      1     11     56      0.1796          0.6804E+06
   1057      1     11     57      0.1755          0.6804E+06
   1058      1     11     58      0.1713          0.6804E+06
   1059      1     11     59      0.1677          0.6804E+06
   1060      1     11     60      0.1634          0.6804E+06
   1061      1     11     61      0.1600          0.6804E+06
   1062      1     11     62      0.1560          0.6804E+06
   1063      1     11     63      0.1514          0.6804E+06
   1064      1     11     64      0.1463          0.6804E+06
   1065      1     11     65      0.1389          0.6804E+06
   1066      1     11     66      0.1304          0.6804E+06
   1067      1     11     67      0.1237          0.6804E+06
   1068      1     11     68      0.1186          0.6804E+06
   1069      1     11     69      0.1149          0.6804E+06
   1070      1     11     70      0.1109          0.6804E+06
   1071      1     11     71      0.1065          0.6804E+06
   1072      1     11     72      0.1019          0.6804E+06
   1073      1     11     73      0.9568E-01      0.6804E+06
   1074      1     11     74      0.9004E-01      0.6804E+06
   1075      1     11     75      0.8625E-01      0.6804E+06
   1076      1     11     76      0.8396E-01      0.6804E+06
   1077      1     11     77      0.8147E-01      0.6804E+06
   1078      1     11     78      0.7762E-01      0.6804E+06
   1079      1     11     79      0.7270E-01      0.6804E+06
   1080      1     11     80      0.6809E-01      0.6804E+06
   1081      1     11     81      0.6301E-01      0.6804E+06
   1082      1     11     82      0.5786E-01      0.6804E+06
   1083      1     11     83      0.5327E-01      0.6804E+06
   1084      1     11     84      0.4735E-01      0.6804E+06
   1085      1     11     85      0.3999E-01      0.6804E+06
   1086      1     11     86      0.2950E-01      0.6804E+06
   1087      1     11     87      0.1704E-01      0.6804E+06
   1088      1     11     88      0.5363E-02      0.6804E+06
   1089      1     11     89       0.000          0.6804E+06
   1090      1     11     90       0.000          0.6804E+06
   1091      1     11     91     -0.6310E-01      0.6804E+06
   1092      1     11     92     -0.8652E-01      0.6804E+06
   1093      1     11     93     -0.1029          0.6804E+06
   1094      1     11     94     -0.1237          0.6804E+06
   1095      1     11     95     -0.1383          0.6804E+06
   1096      1     11     96     -0.1603          0.6804E+06
   1097      1     11     97     -0.2289          0.6804E+06
   1098      1     11     98     -0.2050          0.6804E+06
   1099      1     11     99     -0.1569          0.6804E+06
   1100      1     11    100     -0.1391          0.6804E+06
   1101      1     12      1      0.5005          0.6804E+06
   1102      1     12      2      0.4995          0.6804E+06
   1103      1     12      3      0.4984          0.6804E+06
   1104      1     12      4      0.4965          0.6804E+06
   1105      1     12      5      0.4937          0.6804E+06
   1106      1     12      6      0.4895          0.6804E+06
   1107      1     12      7      0.4814          0.6804E+06
   1108      1     12      8      0.4671          0.6804E+06
   1109      1     12      9      0.4475          0.6804E+06
   1110      1     12     10      0.4195          0.6804E+06
   1111      1     12     11      0.3936          0.6804E+06
   1112      1     12     12      0.3655          0.6804E+06
   1113      1     12     13      0.3402          0.6804E+06
   1114      1     12     14      0.3244          0.6804E+06
   1115      1     12     15      0.3130          0.6804E+06
   1116      1     12     16      0.3076          0.6804E+06
   1117      1     12     17      0.3017          0.6804E+06
   1118      1     12     18      0.2963          0.6804E+06
   1119      1     12     19      0.2915          0.6804E+06
   1120      1     12     20      0.2843          0.6804E+06
   1121      1     12     21      0.2741          0.6804E+06
   1122      1     12     22      0.2635          0.6804E+06
   1123      1     12     23      0.2507          0.6804E+06
   1124      1     12     24      0.2391          0.6804E+06
   1125      1     12     25      0.2265          0.6804E+06
   1126      1     12     26      0.2146          0.6804E+06
   1127      1     12     27      0.2049          0.6804E+06
   1128      1     12     28      0.1957          0.6804E+06
   1129      1     12     29      0.1895          0.6804E+06
   1130      1     12     30      0.1857          0.6804E+06
   1131      1     12     31      0.1838          0.6804E+06
   1132      1     12     32      0.1838          0.6804E+06
   1133      1     12     33      0.1843          0.6804E+06
   1134      1     12     34      0.1846          0.6804E+06
   1135      1     12     35      0.1850          0.6804E+06
   1136      1     12     36      0.1852          0.6804E+06
   1137      1     12     37      0.1857          0.6804E+06
   1138      1     12     38      0.1843          0.6804E+06
   1139      1     12     39      0.1823          0.6804E+06
   1140      1     12     40      0.1810          0.6804E+06
   1141      1     12     41      0.1797          0.6804E+06
   1142      1     12     42      0.1785          0.6804E+06
   1143      1     12     43      0.1776          0.6804E+06
   1144      1     12     44      0.1758          0.6804E+06
   1145      1     12     45      0.1730          0.6804E+06
   1146      1     12     46      0.1701          0.6804E+06
   1147      1     12     47      0.1677          0.6804E+06
   1148      1     12     48      0.1694          0.6804E+06
   1149      1     12     49      0.1730          0.6804E+06
   1150      1     12     50      0.1752          0.6804E+06
   1151      1     12     51      0.1764          0.6804E+06
   1152      1     12     52      0.1764          0.6804E+06
   1153      1     12     53      0.1743          0.6804E+06
   1154      1     12     54      0.1706          0.6804E+06
   1155      1     12     55      0.1693          0.6804E+06
   1156      1     12     56      0.1667          0.6804E+06
   1157      1     12     57      0.1628          0.6804E+06
   1158      1     12     58      0.1588          0.6804E+06
   1159      1     12     59      0.1551          0.6804E+06
   1160      1     12     60      0.1509          0.6804E+06
   1161      1     12     61      0.1473          0.6804E+06
   1162      1     12     62      0.1432          0.6804E+06
   1163      1     12     63      0.1389          0.6804E+06
   1164      1     12     64      0.1344          0.6804E+06
   1165      1     12     65      0.1265          0.6804E+06
   1166      1     12     66      0.1167          0.6804E+06
   1167      1     12     67      0.1092          0.6804E+06
   1168      1     12     68      0.1054          0.6804E+06
   1169      1     12     69      0.1031          0.6804E+06
   1170      1     12     70      0.1002          0.6804E+06
   1171      1     12     71      0.9652E-01      0.6804E+06
   1172      1     12     72      0.9234E-01      0.6804E+06
   1173      1     12     73      0.8685E-01      0.6804E+06
   1174      1     12     74      0.8189E-01      0.6804E+06
   1175      1     12     75      0.7844E-01      0.6804E+06
   1176      1     12     76      0.7588E-01      0.6804E+06
   1177      1     12     77      0.7315E-01      0.6804E+06
   1178      1     12     78      0.6915E-01      0.6804E+06
   1179      1     12     79      0.6400E-01      0.6804E+06
   1180      1     12     80      0.5893E-01      0.6804E+06
   1181      1     12     81      0.5325E-01      0.6804E+06
   1182      1     12     82      0.4783E-01      0.6804E+06
   1183      1     12     83      0.4289E-01      0.6804E+06
   1184      1     12     84      0.3546E-01      0.6804E+06
   1185      1     12     85      0.2601E-01      0.6804E+06
   1186      1     12     86      0.1418E-01      0.6804E+06
   1187      1     12     87      0.9250E-03      0.6804E+06
   1188      1     12     88       0.000          0.6804E+06
   1189      1     12     89       0.000          0.6804E+06
   1190      1     12     90     -0.7046E-01      0.6804E+06
   1191      1     12     91     -0.8687E-01      0.6804E+06
   1192      1     12     92     -0.1042          0.6804E+06
   1193      1     12     93     -0.1183          0.6804E+06
   1194      1     12     94     -0.1342          0.6804E+06
   1195      1     12     95     -0.1562          0.6804E+06
   1196      1     12     96     -0.2266          0.6804E+06
   1197      1     12     97     -0.1988          0.6804E+06
   1198      1     12     98     -0.1559          0.6804E+06
   1199      1     12     99     -0.1234          0.6804E+06
   1200      1     12    100     -0.1214          0.6804E+06
   1201      1     13      1      0.5044          0.6804E+06
   1202      1     13      2      0.5024          0.6804E+06
   1203      1     13      3      0.5004          0.6804E+06
   1204      1     13      4      0.4974          0.6804E+06
   1205      1     13      5      0.4931          0.6804E+06
   1206      1     13      6      0.4871          0.6804E+06
   1207      1     13      7      0.4765          0.6804E+06
   1208      1     13      8      0.4596          0.6804E+06
   1209      1     13      9      0.4382          0.6804E+06
   1210      1     13     10      0.4073          0.6804E+06
   1211      1     13     11      0.3781          0.6804E+06
   1212      1     13     12      0.3455          0.6804E+06
   1213      1     13     13      0.3149          0.6804E+06
   1214      1     13     14      0.2984          0.6804E+06
   1215      1     13     15      0.2888          0.6804E+06
   1216      1     13     16      0.2856          0.6804E+06
   1217      1     13     17      0.2810          0.6804E+06
   1218      1     13     18      0.2750          0.6804E+06
   1219      1     13     19      0.2690          0.6804E+06
   1220      1     13     20      0.2607          0.6804E+06
   1221      1     13     21      0.2508          0.6804E+06
   1222      1     13     22      0.2413          0.6804E+06
   1223      1     13     23      0.2297          0.6804E+06
   1224      1     13     24      0.2189          0.6804E+06
   1225      1     13     25      0.2072          0.6804E+06
   1226      1     13     26      0.1967          0.6804E+06
   1227      1     13     27      0.1884          0.6804E+06
   1228      1     13     28      0.1810          0.6804E+06
   1229      1     13     29      0.1766          0.6804E+06
   1230      1     13     30      0.1743          0.6804E+06
   1231      1     13     31      0.1738          0.6804E+06
   1232      1     13     32      0.1755          0.6804E+06
   1233      1     13     33      0.1799          0.6804E+06
   1234      1     13     34      0.1864          0.6804E+06
   1235      1     13     35      0.1954          0.6804E+06
   1236      1     13     36      0.2086          0.6804E+06
   1237      1     13     37      0.2184          0.6804E+06
   1238      1     13     38      0.2114          0.6804E+06
   1239      1     13     39      0.1974          0.6804E+06
   1240      1     13     40      0.1865          0.6804E+06
   1241      1     13     41      0.1780          0.6804E+06
   1242      1     13     42      0.1723          0.6804E+06
   1243      1     13     43      0.1693          0.6804E+06
   1244      1     13     44      0.1655          0.6804E+06
   1245      1     13     45      0.1614          0.6804E+06
   1246      1     13     46      0.1585          0.6804E+06
   1247      1     13     47      0.1564          0.6804E+06
   1248      1     13     48      0.1572          0.6804E+06
   1249      1     13     49      0.1594          0.6804E+06
   1250      1     13     50      0.1607          0.6804E+06
   1251      1     13     51      0.1615          0.6804E+06
   1252      1     13     52      0.1604          0.6804E+06
   1253      1     13     53      0.1583          0.6804E+06
   1254      1     13     54      0.1563          0.6804E+06
   1255      1     13     55      0.1549          0.6804E+06
   1256      1     13     56      0.1521          0.6804E+06
   1257      1     13     57      0.1480          0.6804E+06
   1258      1     13     58      0.1438          0.6804E+06
   1259      1     13     59      0.1399          0.6804E+06
   1260      1     13     60      0.1354          0.6804E+06
   1261      1     13     61      0.1316          0.6804E+06
   1262      1     13     62      0.1272          0.6804E+06
   1263      1     13     63      0.1240          0.6804E+06
   1264      1     13     64      0.1198          0.6804E+06
   1265      1     13     65      0.1122          0.6804E+06
   1266      1     13     66      0.1019          0.6804E+06
   1267      1     13     67      0.9317E-01      0.6804E+06
   1268      1     13     68      0.9147E-01      0.6804E+06
   1269      1     13     69      0.9093E-01      0.6804E+06
   1270      1     13     70      0.8931E-01      0.6804E+06
   1271      1     13     71      0.8636E-01      0.6804E+06
   1272      1     13     72      0.8272E-01      0.6804E+06
   1273      1     13     73      0.7806E-01      0.6804E+06
   1274      1     13     74      0.7389E-01      0.6804E+06
   1275      1     13     75      0.7073E-01      0.6804E+06
   1276      1     13     76      0.6702E-01      0.6804E+06
   1277      1     13     77      0.6354E-01      0.6804E+06
   1278      1     13     78      0.5881E-01      0.6804E+06
   1279      1     13     79      0.5279E-01      0.6804E+06
   1280      1     13     80      0.4697E-01      0.6804E+06
   1281      1     13     81      0.3993E-01      0.6804E+06
   1282      1     13     82      0.3310E-01      0.6804E+06
   1283      1     13     83      0.2724E-01      0.6804E+06
   1284      1     13     84      0.1894E-01      0.6804E+06
   1285      1     13     85      0.7591E-02      0.6804E+06
   1286      1     13     86       0.000          0.6804E+06
   1287      1     13     87       0.000          0.6804E+06
   1288      1     13     88     -0.5507E-01      0.6804E+06
   1289      1     13     89     -0.7767E-01      0.6804E+06
   1290      1     13     90     -0.9604E-01      0.6804E+06
   1291      1     13     91     -0.1095          0.6804E+06
   1292      1     13     92     -0.1211          0.6804E+06
   1293      1     13     93     -0.1322          0.6804E+06
   1294      1     13     94     -0.1323          0.6804E+06
   1295      1     13     95     -0.1705          0.6804E+06
   1296      1     13     96     -0.2359          0.6804E+06
   1297      1     13     97     -0.1808          0.6804E+06
   1298      1     13     98     -0.1415          0.6804E+06
   1299      1     13     99     -0.1149          0.6804E+06
   1300      1     13    100     -0.1151          0.6804E+06
   1301      1     14      1      0.5075          0.6804E+06
   1302      1     14      2      0.5045          0.6804E+06
   1303      1     14      3      0.5015          0.6804E+06
   1304      1     14      4      0.4975          0.6804E+06
   1305      1     14      5      0.4922          0.6804E+06
   1306      1     14      6      0.4855          0.6804E+06
   1307      1     14      7      0.4742          0.6804E+06
   1308      1     14      8      0.4567          0.6804E+06
   1309      1     14      9      0.4344          0.6804E+06
   1310      1     14     10      0.4021          0.6804E+06
   1311      1     14     11      0.3712          0.6804E+06
   1312      1     14     12      0.3364          0.6804E+06
   1313      1     14     13      0.3056          0.6804E+06
   1314      1     14     14      0.2873          0.6804E+06
   1315      1     14     15      0.2750          0.6804E+06
   1316      1     14     16      0.2695          0.6804E+06
   1317      1     14     17      0.2634          0.6804E+06
   1318      1     14     18      0.2561          0.6804E+06
   1319      1     14     19      0.2487          0.6804E+06
   1320      1     14     20      0.2391          0.6804E+06
   1321      1     14     21      0.2288          0.6804E+06
   1322      1     14     22      0.2196          0.6804E+06
   1323      1     14     23      0.2086          0.6804E+06
   1324      1     14     24      0.1984          0.6804E+06
   1325      1     14     25      0.1874          0.6804E+06
   1326      1     14     26      0.1778          0.6804E+06
   1327      1     14     27      0.1704          0.6804E+06
   1328      1     14     28      0.1641          0.6804E+06
   1329      1     14     29      0.1614          0.6804E+06
   1330      1     14     30      0.1607          0.6804E+06
   1331      1     14     31      0.1615          0.6804E+06
   1332      1     14     32      0.1645          0.6804E+06
   1333      1     14     33      0.1713          0.6804E+06
   1334      1     14     34      0.1816          0.6804E+06
   1335      1     14     35      0.1949          0.6804E+06
   1336      1     14     36      0.2137          0.6804E+06
   1337      1     14     37      0.2274          0.6804E+06
   1338      1     14     38      0.2180          0.6804E+06
   1339      1     14     39      0.1994          0.6804E+06
   1340      1     14     40      0.1844          0.6804E+06
   1341      1     14     41      0.1727          0.6804E+06
   1342      1     14     42      0.1647          0.6804E+06
   1343      1     14     43      0.1597          0.6804E+06
   1344      1     14     44      0.1550          0.6804E+06
   1345      1     14     45      0.1516          0.6804E+06
   1346      1     14     46      0.1502          0.6804E+06
   1347      1     14     47      0.1491          0.6804E+06
   1348      1     14     48      0.1487          0.6804E+06
   1349      1     14     49      0.1486          0.6804E+06
   1350      1     14     50      0.1485          0.6804E+06
   1351      1     14     51      0.1477          0.6804E+06
   1352      1     14     52      0.1458          0.6804E+06
   1353      1     14     53      0.1444          0.6804E+06
   1354      1     14     54      0.1436          0.6804E+06
   1355      1     14     55      0.1409          0.6804E+06
   1356      1     14     56      0.1375          0.6804E+06
   1357      1     14     57      0.1331          0.6804E+06
   1358      1     14     58      0.1289          0.6804E+06
   1359      1     14     59      0.1246          0.6804E+06
   1360      1     14     60      0.1194          0.6804E+06
   1361      1     14     61      0.1155          0.6804E+06
   1362      1     14     62      0.1122          0.6804E+06
   1363      1     14     63      0.1099          0.6804E+06
   1364      1     14     64      0.1065          0.6804E+06
   1365      1     14     65      0.1005          0.6804E+06
   1366      1     14     66      0.9264E-01      0.6804E+06
   1367      1     14     67      0.8619E-01      0.6804E+06
   1368      1     14     68      0.8330E-01      0.6804E+06
   1369      1     14     69      0.8193E-01      0.6804E+06
   1370      1     14     70      0.8018E-01      0.6804E+06
   1371      1     14     71      0.7730E-01      0.6804E+06
   1372      1     14     72      0.7382E-01      0.6804E+06
   1373      1     14     73      0.6933E-01      0.6804E+06
   1374      1     14     74      0.6537E-01      0.6804E+06
   1375      1     14     75      0.6226E-01      0.6804E+06
   1376      1     14     76      0.5722E-01      0.6804E+06
   1377      1     14     77      0.5278E-01      0.6804E+06
   1378      1     14     78      0.4708E-01      0.6804E+06
   1379      1     14     79      0.3986E-01      0.6804E+06
   1380      1     14     80      0.3278E-01      0.6804E+06
   1381      1     14     81      0.2332E-01      0.6804E+06
   1382      1     14     82      0.1378E-01      0.6804E+06
   1383      1     14     83      0.6767E-02      0.6804E+06
   1384      1     14     84       0.000          0.6804E+06
   1385      1     14     85       0.000          0.6804E+06
   1386      1     14     86       0.000          0.6804E+06
   1387      1     14     87     -0.6990E-01      0.6804E+06
   1388      1     14     88     -0.8457E-01      0.6804E+06
   1389      1     14     89     -0.1005          0.6804E+06
   1390      1     14     90     -0.1123          0.6804E+06
   1391      1     14     91     -0.1239          0.6804E+06
   1392      1     14     92     -0.1294          0.6804E+06
   1393      1     14     93     -0.1235          0.6804E+06
   1394      1     14     94     -0.1113          0.6804E+06
   1395      1     14     95     -0.1083          0.6804E+06
   1396      1     14     96     -0.1203          0.6804E+06
   1397      1     14     97     -0.1151          0.6804E+06
   1398      1     14     98     -0.9548E-01      0.6804E+06
   1399      1     14     99     -0.9044E-01      0.6804E+06
   1400      1     14    100     -0.9852E-01      0.6804E+06
   1401      1     15      1      0.5097          0.6804E+06
   1402      1     15      2      0.5056          0.6804E+06
   1403      1     15      3      0.5017          0.6804E+06
   1404      1     15      4      0.4968          0.6804E+06
   1405      1     15      5      0.4910          0.6804E+06
   1406      1     15      6      0.4845          0.6804E+06
   1407      1     15      7      0.4742          0.6804E+06
   1408      1     15      8      0.4581          0.6804E+06
   1409      1     15      9      0.4357          0.6804E+06
   1410      1     15     10      0.4026          0.6804E+06
   1411      1     15     11      0.3704          0.6804E+06
   1412      1     15     12      0.3344          0.6804E+06
   1413      1     15     13      0.3034          0.6804E+06
   1414      1     15     14      0.2839          0.6804E+06
   1415      1     15     15      0.2688          0.6804E+06
   1416      1     15     16      0.2604          0.6804E+06
   1417      1     15     17      0.2518          0.6804E+06
   1418      1     15     18      0.2425          0.6804E+06
   1419      1     15     19      0.2338          0.6804E+06
   1420      1     15     20      0.2228          0.6804E+06
   1421      1     15     21      0.2115          0.6804E+06
   1422      1     15     22      0.2016          0.6804E+06
   1423      1     15     23      0.1904          0.6804E+06
   1424      1     15     24      0.1804          0.6804E+06
   1425      1     15     25      0.1697          0.6804E+06
   1426      1     15     26      0.1606          0.6804E+06
   1427      1     15     27      0.1537          0.6804E+06
   1428      1     15     28      0.1482          0.6804E+06
   1429      1     15     29      0.1468          0.6804E+06
   1430      1     15     30      0.1467          0.6804E+06
   1431      1     15     31      0.1483          0.6804E+06
   1432      1     15     32      0.1522          0.6804E+06
   1433      1     15     33      0.1601          0.6804E+06
   1434      1     15     34      0.1709          0.6804E+06
   1435      1     15     35      0.1831          0.6804E+06
   1436      1     15     36      0.1983          0.6804E+06
   1437      1     15     37      0.2078          0.6804E+06
   1438      1     15     38      0.2007          0.6804E+06
   1439      1     15     39      0.1863          0.6804E+06
   1440      1     15     40      0.1735          0.6804E+06
   1441      1     15     41      0.1624          0.6804E+06
   1442      1     15     42      0.1549          0.6804E+06
   1443      1     15     43      0.1497          0.6804E+06
   1444      1     15     44      0.1454          0.6804E+06
   1445      1     15     45      0.1435          0.6804E+06
   1446      1     15     46      0.1436          0.6804E+06
   1447      1     15     47      0.1428          0.6804E+06
   1448      1     15     48      0.1416          0.6804E+06
   1449      1     15     49      0.1399          0.6804E+06
   1450      1     15     50      0.1384          0.6804E+06
   1451      1     15     51      0.1357          0.6804E+06
   1452      1     15     52      0.1348          0.6804E+06
   1453      1     15     53      0.1345          0.6804E+06
   1454      1     15     54      0.1321          0.6804E+06
   1455      1     15     55      0.1286          0.6804E+06
   1456      1     15     56      0.1247          0.6804E+06
   1457      1     15     57      0.1202          0.6804E+06
   1458      1     15     58      0.1164          0.6804E+06
   1459      1     15     59      0.1120          0.6804E+06
   1460      1     15     60      0.1064          0.6804E+06
   1461      1     15     61      0.1027          0.6804E+06
   1462      1     15     62      0.1004          0.6804E+06
   1463      1     15     63      0.9913E-01      0.6804E+06
   1464      1     15     64      0.9672E-01      0.6804E+06
   1465      1     15     65      0.9227E-01      0.6804E+06
   1466      1     15     66      0.8654E-01      0.6804E+06
   1467      1     15     67      0.8177E-01      0.6804E+06
   1468      1     15     68      0.7807E-01      0.6804E+06
   1469      1     15     69      0.7570E-01      0.6804E+06
   1470      1     15     70      0.7318E-01      0.6804E+06
   1471      1     15     71      0.6998E-01      0.6804E+06
   1472      1     15     72      0.6634E-01      0.6804E+06
   1473      1     15     73      0.6178E-01      0.6804E+06
   1474      1     15     74      0.5740E-01      0.6804E+06
   1475      1     15     75      0.5345E-01      0.6804E+06
   1476      1     15     76      0.4765E-01      0.6804E+06
   1477      1     15     77      0.4245E-01      0.6804E+06
   1478      1     15     78      0.3577E-01      0.6804E+06
   1479      1     15     79      0.2695E-01      0.6804E+06
   1480      1     15     80      0.1672E-01      0.6804E+06
   1481      1     15     81      0.4409E-02      0.6804E+06
   1482      1     15     82       0.000          0.6804E+06
   1483      1     15     83       0.000          0.6804E+06
   1484      1     15     84       0.000          0.6804E+06
   1485      1     15     85     -0.5727E-01      0.6804E+06
   1486      1     15     86     -0.7659E-01      0.6804E+06
   1487      1     15     87     -0.9258E-01      0.6804E+06
   1488      1     15     88     -0.1039          0.6804E+06
   1489      1     15     89     -0.1146          0.6804E+06
   1490      1     15     90     -0.1237          0.6804E+06
   1491      1     15     91     -0.1298          0.6804E+06
   1492      1     15     92     -0.1364          0.6804E+06
   1493      1     15     93     -0.9256E-01      0.6804E+06
   1494      1     15     94     -0.6529E-01      0.6804E+06
   1495      1     15     95     -0.4532E-01      0.6804E+06
   1496      1     15     96     -0.3364E-01      0.6804E+06
   1497      1     15     97     -0.2528E-01      0.6804E+06
   1498      1     15     98     -0.1991E-01      0.6804E+06
   1499      1     15     99     -0.2013E-01      0.6804E+06
   1500      1     15    100     -0.2466E-01      0.6804E+06
   1501      1     16      1      0.5117          0.6804E+06
   1502      1     16      2      0.5062          0.6804E+06
   1503      1     16      3      0.5011          0.6804E+06
   1504      1     16      4      0.4951          0.6804E+06
   1505      1     16      5      0.4888          0.6804E+06
   1506      1     16      6      0.4828          0.6804E+06
   1507      1     16      7      0.4744          0.6804E+06
   1508      1     16      8      0.4616          0.6804E+06
   1509      1     16      9      0.4391          0.6804E+06
   1510      1     16     10      0.4047          0.6804E+06
   1511      1     16     11      0.3710          0.6804E+06
   1512      1     16     12      0.3335          0.6804E+06
   1513      1     16     13      0.3011          0.6804E+06
   1514      1     16     14      0.2806          0.6804E+06
   1515      1     16     15      0.2641          0.6804E+06
   1516      1     16     16      0.2535          0.6804E+06
   1517      1     16     17      0.2422          0.6804E+06
   1518      1     16     18      0.2306          0.6804E+06
   1519      1     16     19      0.2201          0.6804E+06
   1520      1     16     20      0.2073          0.6804E+06
   1521      1     16     21      0.1940          0.6804E+06
   1522      1     16     22      0.1829          0.6804E+06
   1523      1     16     23      0.1706          0.6804E+06
   1524      1     16     24      0.1597          0.6804E+06
   1525      1     16     25      0.1484          0.6804E+06
   1526      1     16     26      0.1396          0.6804E+06
   1527      1     16     27      0.1334          0.6804E+06
   1528      1     16     28      0.1290          0.6804E+06
   1529      1     16     29      0.1286          0.6804E+06
   1530      1     16     30      0.1287          0.6804E+06
   1531      1     16     31      0.1310          0.6804E+06
   1532      1     16     32      0.1358          0.6804E+06
   1533      1     16     33      0.1437          0.6804E+06
   1534      1     16     34      0.1528          0.6804E+06
   1535      1     16     35      0.1609          0.6804E+06
   1536      1     16     36      0.1686          0.6804E+06
   1537      1     16     37      0.1713          0.6804E+06
   1538      1     16     38      0.1682          0.6804E+06
   1539      1     16     39      0.1613          0.6804E+06
   1540      1     16     40      0.1537          0.6804E+06
   1541      1     16     41      0.1457          0.6804E+06
   1542      1     16     42      0.1414          0.6804E+06
   1543      1     16     43      0.1373          0.6804E+06
   1544      1     16     44      0.1339          0.6804E+06
   1545      1     16     45      0.1332          0.6804E+06
   1546      1     16     46      0.1338          0.6804E+06
   1547      1     16     47      0.1335          0.6804E+06
   1548      1     16     48      0.1321          0.6804E+06
   1549      1     16     49      0.1293          0.6804E+06
   1550      1     16     50      0.1260          0.6804E+06
   1551      1     16     51      0.1247          0.6804E+06
   1552      1     16     52      0.1238          0.6804E+06
   1553      1     16     53      0.1221          0.6804E+06
   1554      1     16     54      0.1190          0.6804E+06
   1555      1     16     55      0.1149          0.6804E+06
   1556      1     16     56      0.1106          0.6804E+06
   1557      1     16     57      0.1062          0.6804E+06
   1558      1     16     58      0.1032          0.6804E+06
   1559      1     16     59      0.9961E-01      0.6804E+06
   1560      1     16     60      0.9462E-01      0.6804E+06
   1561      1     16     61      0.9123E-01      0.6804E+06
   1562      1     16     62      0.8954E-01      0.6804E+06
   1563      1     16     63      0.8927E-01      0.6804E+06
   1564      1     16     64      0.8770E-01      0.6804E+06
   1565      1     16     65      0.8443E-01      0.6804E+06
   1566      1     16     66      0.8000E-01      0.6804E+06
   1567      1     16     67      0.7607E-01      0.6804E+06
   1568      1     16     68      0.7199E-01      0.6804E+06
   1569      1     16     69      0.6876E-01      0.6804E+06
   1570      1     16     70      0.6524E-01      0.6804E+06
   1571      1     16     71      0.6114E-01      0.6804E+06
   1572      1     16     72      0.5699E-01      0.6804E+06
   1573      1     16     73      0.5135E-01      0.6804E+06
   1574      1     16     74      0.4537E-01      0.6804E+06
   1575      1     16     75      0.4001E-01      0.6804E+06
   1576      1     16     76      0.3291E-01      0.6804E+06
   1577      1     16     77      0.2612E-01      0.6804E+06
   1578      1     16     78      0.1827E-01      0.6804E+06
   1579      1     16     79      0.9393E-02      0.6804E+06
   1580      1     16     80       0.000          0.6804E+06
   1581      1     16     81       0.000          0.6804E+06
   1582      1     16     82       0.000          0.6804E+06
   1583      1     16     83     -0.5502E-01      0.6804E+06
   1584      1     16     84     -0.7255E-01      0.6804E+06
   1585      1     16     85     -0.8768E-01      0.6804E+06
   1586      1     16     86     -0.1024          0.6804E+06
   1587      1     16     87     -0.1115          0.6804E+06
   1588      1     16     88     -0.1170          0.6804E+06
   1589      1     16     89     -0.1233          0.6804E+06
   1590      1     16     90     -0.1447          0.6804E+06
   1591      1     16     91     -0.1675          0.6804E+06
   1592      1     16     92     -0.8646E-01      0.6804E+06
   1593      1     16     93     -0.3336E-01      0.6804E+06
   1594      1     16     94     -0.6072E-02      0.6804E+06
   1595      1     16     95      0.8056E-02      0.6804E+06
   1596      1     16     96      0.1391E-01      0.6804E+06
   1597      1     16     97      0.1903E-01      0.6804E+06
   1598      1     16     98      0.2325E-01      0.6804E+06
   1599      1     16     99      0.2518E-01      0.6804E+06
   1600      1     16    100      0.2259E-01      0.6804E+06
   1601      1     17      1      0.5132          0.6804E+06
   1602      1     17      2      0.5061          0.6804E+06
   1603      1     17      3      0.4996          0.6804E+06
   1604      1     17      4      0.4924          0.6804E+06
   1605      1     17      5      0.4856          0.6804E+06
   1606      1     17      6      0.4796          0.6804E+06
   1607      1     17      7      0.4724          0.6804E+06
   1608      1     17      8      0.4619          0.6804E+06
   1609      1     17      9      0.4397          0.6804E+06
   1610      1     17     10      0.4053          0.6804E+06
   1611      1     17     11      0.3715          0.6804E+06
   1612      1     17     12      0.3337          0.6804E+06
   1613      1     17     13      0.3002          0.6804E+06
   1614      1     17     14      0.2792          0.6804E+06
   1615      1     17     15      0.2623          0.6804E+06
   1616      1     17     16      0.2502          0.6804E+06
   1617      1     17     17      0.2367          0.6804E+06
   1618      1     17     18      0.2231          0.6804E+06
   1619      1     17     19      0.2108          0.6804E+06
   1620      1     17     20      0.1962          0.6804E+06
   1621      1     17     21      0.1812          0.6804E+06
   1622      1     17     22      0.1685          0.6804E+06
   1623      1     17     23      0.1543          0.6804E+06
   1624      1     17     24      0.1419          0.6804E+06
   1625      1     17     25      0.1295          0.6804E+06
   1626      1     17     26      0.1200          0.6804E+06
   1627      1     17     27      0.1139          0.6804E+06
   1628      1     17     28      0.1103          0.6804E+06
   1629      1     17     29      0.1107          0.6804E+06
   1630      1     17     30      0.1120          0.6804E+06
   1631      1     17     31      0.1153          0.6804E+06
   1632      1     17     32      0.1203          0.6804E+06
   1633      1     17     33      0.1270          0.6804E+06
   1634      1     17     34      0.1337          0.6804E+06
   1635      1     17     35      0.1382          0.6804E+06
   1636      1     17     36      0.1404          0.6804E+06
   1637      1     17     37      0.1388          0.6804E+06
   1638      1     17     38      0.1377          0.6804E+06
   1639      1     17     39      0.1360          0.6804E+06
   1640      1     17     40      0.1331          0.6804E+06
   1641      1     17     41      0.1291          0.6804E+06
   1642      1     17     42      0.1276          0.6804E+06
   1643      1     17     43      0.1251          0.6804E+06
   1644      1     17     44      0.1228          0.6804E+06
   1645      1     17     45      0.1228          0.6804E+06
   1646      1     17     46      0.1235          0.6804E+06
   1647      1     17     47      0.1234          0.6804E+06
   1648      1     17     48      0.1220          0.6804E+06
   1649      1     17     49      0.1190          0.6804E+06
   1650      1     17     50      0.1160          0.6804E+06
   1651      1     17     51      0.1151          0.6804E+06
   1652      1     17     52      0.1138          0.6804E+06
   1653      1     17     53      0.1116          0.6804E+06
   1654      1     17     54      0.1082          0.6804E+06
   1655      1     17     55      0.1036          0.6804E+06
   1656      1     17     56      0.9933E-01      0.6804E+06
   1657      1     17     57      0.9552E-01      0.6804E+06
   1658      1     17     58      0.9389E-01      0.6804E+06
   1659      1     17     59      0.9159E-01      0.6804E+06
   1660      1     17     60      0.8807E-01      0.6804E+06
   1661      1     17     61      0.8546E-01      0.6804E+06
   1662      1     17     62      0.8386E-01      0.6804E+06
   1663      1     17     63      0.8290E-01      0.6804E+06
   1664      1     17     64      0.8115E-01      0.6804E+06
   1665      1     17     65      0.7799E-01      0.6804E+06
   1666      1     17     66      0.7371E-01      0.6804E+06
   1667      1     17     67      0.6994E-01      0.6804E+06
   1668      1     17     68      0.6543E-01      0.6804E+06
   1669      1     17     69      0.6161E-01      0.6804E+06
   1670      1     17     70      0.5726E-01      0.6804E+06
   1671      1     17     71      0.5201E-01      0.6804E+06
   1672      1     17     72      0.4704E-01      0.6804E+06
   1673      1     17     73      0.3964E-01      0.6804E+06
   1674      1     17     74      0.3137E-01      0.6804E+06
   1675      1     17     75      0.2447E-01      0.6804E+06
   1676      1     17     76      0.1673E-01      0.6804E+06
   1677      1     17     77      0.7928E-02      0.6804E+06
   1678      1     17     78       0.000          0.6804E+06
   1679      1     17     79       0.000          0.6804E+06
   1680      1     17     80       0.000          0.6804E+06
   1681      1     17     81     -0.5108E-01      0.6804E+06
   1682      1     17     82     -0.6802E-01      0.6804E+06
   1683      1     17     83     -0.8274E-01      0.6804E+06
   1684      1     17     84     -0.9991E-01      0.6804E+06
   1685      1     17     85     -0.1090          0.6804E+06
   1686      1     17     86     -0.1146          0.6804E+06
   1687      1     17     87     -0.1207          0.6804E+06
   1688      1     17     88     -0.1303          0.6804E+06
   1689      1     17     89     -0.1228          0.6804E+06
   1690      1     17     90     -0.1321          0.6804E+06
   1691      1     17     91     -0.1019          0.6804E+06
   1692      1     17     92     -0.4046E-01      0.6804E+06
   1693      1     17     93     -0.4846E-02      0.6804E+06
   1694      1     17     94      0.2199E-01      0.6804E+06
   1695      1     17     95      0.3200E-01      0.6804E+06
   1696      1     17     96      0.3853E-01      0.6804E+06
   1697      1     17     97      0.4280E-01      0.6804E+06
   1698      1     17     98      0.4569E-01      0.6804E+06
   1699      1     17     99      0.4825E-01      0.6804E+06
   1700      1     17    100      0.4855E-01      0.6804E+06
   1701      1     18      1      0.5150          0.6804E+06
   1702      1     18      2      0.5057          0.6804E+06
   1703      1     18      3      0.4971          0.6804E+06
   1704      1     18      4      0.4879          0.6804E+06
   1705      1     18      5      0.4798          0.6804E+06
   1706      1     18      6      0.4730          0.6804E+06
   1707      1     18      7      0.4644          0.6804E+06
   1708      1     18      8      0.4516          0.6804E+06
   1709      1     18      9      0.4319          0.6804E+06
   1710      1     18     10      0.4020          0.6804E+06
   1711      1     18     11      0.3718          0.6804E+06
   1712      1     18     12      0.3362          0.6804E+06
   1713      1     18     13      0.3032          0.6804E+06
   1714      1     18     14      0.2818          0.6804E+06
   1715      1     18     15      0.2638          0.6804E+06
   1716      1     18     16      0.2494          0.6804E+06
   1717      1     18     17      0.2333          0.6804E+06
   1718      1     18     18      0.2170          0.6804E+06
   1719      1     18     19      0.2027          0.6804E+06
   1720      1     18     20      0.1862          0.6804E+06
   1721      1     18     21      0.1691          0.6804E+06
   1722      1     18     22      0.1541          0.6804E+06
   1723      1     18     23      0.1371          0.6804E+06
   1724      1     18     24      0.1224          0.6804E+06
   1725      1     18     25      0.1077          0.6804E+06
   1726      1     18     26      0.9683E-01      0.6804E+06
   1727      1     18     27      0.9037E-01      0.6804E+06
   1728      1     18     28      0.8722E-01      0.6804E+06
   1729      1     18     29      0.8822E-01      0.6804E+06
   1730      1     18     30      0.9017E-01      0.6804E+06
   1731      1     18     31      0.9450E-01      0.6804E+06
   1732      1     18     32      0.1004          0.6804E+06
   1733      1     18     33      0.1067          0.6804E+06
   1734      1     18     34      0.1114          0.6804E+06
   1735      1     18     35      0.1126          0.6804E+06
   1736      1     18     36      0.1102          0.6804E+06
   1737      1     18     37      0.1052          0.6804E+06
   1738      1     18     38      0.1062          0.6804E+06
   1739      1     18     39      0.1093          0.6804E+06
   1740      1     18     40      0.1112          0.6804E+06
   1741      1     18     41      0.1112          0.6804E+06
   1742      1     18     42      0.1096          0.6804E+06
   1743      1     18     43      0.1083          0.6804E+06
   1744      1     18     44      0.1079          0.6804E+06
   1745      1     18     45      0.1090          0.6804E+06
   1746      1     18     46      0.1104          0.6804E+06
   1747      1     18     47      0.1104          0.6804E+06
   1748      1     18     48      0.1092          0.6804E+06
   1749      1     18     49      0.1066          0.6804E+06
   1750      1     18     50      0.1047          0.6804E+06
   1751      1     18     51      0.1038          0.6804E+06
   1752      1     18     52      0.1026          0.6804E+06
   1753      1     18     53      0.1007          0.6804E+06
   1754      1     18     54      0.9736E-01      0.6804E+06
   1755      1     18     55      0.9312E-01      0.6804E+06
   1756      1     18     56      0.8958E-01      0.6804E+06
   1757      1     18     57      0.8681E-01      0.6804E+06
   1758      1     18     58      0.8607E-01      0.6804E+06
   1759      1     18     59      0.8470E-01      0.6804E+06
   1760      1     18     60      0.8208E-01      0.6804E+06
   1761      1     18     61      0.7980E-01      0.6804E+06
   1762      1     18     62      0.7801E-01      0.6804E+06
   1763      1     18     63      0.7614E-01      0.6804E+06
   1764      1     18     64      0.7453E-01      0.6804E+06
   1765      1     18     65      0.7158E-01      0.6804E+06
   1766      1     18     66      0.6652E-01      0.6804E+06
   1767      1     18     67      0.6196E-01      0.6804E+06
   1768      1     18     68      0.5659E-01      0.6804E+06
   1769      1     18     69      0.5138E-01      0.6804E+06
   1770      1     18     70      0.4482E-01      0.6804E+06
   1771      1     18     71      0.3818E-01      0.6804E+06
   1772      1     18     72      0.3179E-01      0.6804E+06
   1773      1     18     73      0.2190E-01      0.6804E+06
   1774      1     18     74      0.1020E-01      0.6804E+06
   1775      1     18     75      0.1296E-02      0.6804E+06
   1776      1     18     76       0.000          0.6804E+06
   1777      1     18     77       0.000          0.6804E+06
   1778      1     18     78     -0.3925E-01      0.6804E+06
   1779      1     18     79     -0.5736E-01      0.6804E+06
   1780      1     18     80     -0.6973E-01      0.6804E+06
   1781      1     18     81     -0.8366E-01      0.6804E+06
   1782      1     18     82     -0.9921E-01      0.6804E+06
   1783      1     18     83     -0.1082          0.6804E+06
   1784      1     18     84     -0.1187          0.6804E+06
   1785      1     18     85     -0.1239          0.6804E+06
   1786      1     18     86     -0.1364          0.6804E+06
   1787      1     18     87     -0.1754          0.6804E+06
   1788      1     18     88     -0.1704          0.6804E+06
   1789      1     18     89     -0.1120          0.6804E+06
   1790      1     18     90     -0.7852E-01      0.6804E+06
   1791      1     18     91     -0.5010E-01      0.6804E+06
   1792      1     18     92     -0.1938E-01      0.6804E+06
   1793      1     18     93      0.1274E-01      0.6804E+06
   1794      1     18     94      0.3358E-01      0.6804E+06
   1795      1     18     95      0.4648E-01      0.6804E+06
   1796      1     18     96      0.5397E-01      0.6804E+06
   1797      1     18     97      0.5858E-01      0.6804E+06
   1798      1     18     98      0.6146E-01      0.6804E+06
   1799      1     18     99      0.6370E-01      0.6804E+06
   1800      1     18    100      0.6368E-01      0.6804E+06
   1801      1     19      1      0.5176          0.6804E+06
   1802      1     19      2      0.5056          0.6804E+06
   1803      1     19      3      0.4941          0.6804E+06
   1804      1     19      4      0.4822          0.6804E+06
   1805      1     19      5      0.4725          0.6804E+06
   1806      1     19      6      0.4650          0.6804E+06
   1807      1     19      7      0.4553          0.6804E+06
   1808      1     19      8      0.4415          0.6804E+06
   1809      1     19      9      0.4239          0.6804E+06
   1810      1     19     10      0.3986          0.6804E+06
   1811      1     19     11      0.3731          0.6804E+06
   1812      1     19     12      0.3424          0.6804E+06
   1813      1     19     13      0.3132          0.6804E+06
   1814      1     19     14      0.2912          0.6804E+06
   1815      1     19     15      0.2694          0.6804E+06
   1816      1     19     16      0.2516          0.6804E+06
   1817      1     19     17      0.2320          0.6804E+06
   1818      1     19     18      0.2130          0.6804E+06
   1819      1     19     19      0.1969          0.6804E+06
   1820      1     19     20      0.1786          0.6804E+06
   1821      1     19     21      0.1591          0.6804E+06
   1822      1     19     22      0.1416          0.6804E+06
   1823      1     19     23      0.1216          0.6804E+06
   1824      1     19     24      0.1042          0.6804E+06
   1825      1     19     25      0.8605E-01      0.6804E+06
   1826      1     19     26      0.7284E-01      0.6804E+06
   1827      1     19     27      0.6629E-01      0.6804E+06
   1828      1     19     28      0.6528E-01      0.6804E+06
   1829      1     19     29      0.6610E-01      0.6804E+06
   1830      1     19     30      0.6813E-01      0.6804E+06
   1831      1     19     31      0.7319E-01      0.6804E+06
   1832      1     19     32      0.8027E-01      0.6804E+06
   1833      1     19     33      0.8782E-01      0.6804E+06
   1834      1     19     34      0.9142E-01      0.6804E+06
   1835      1     19     35      0.9206E-01      0.6804E+06
   1836      1     19     36      0.9011E-01      0.6804E+06
   1837      1     19     37      0.8604E-01      0.6804E+06
   1838      1     19     38      0.8684E-01      0.6804E+06
   1839      1     19     39      0.9017E-01      0.6804E+06
   1840      1     19     40      0.9291E-01      0.6804E+06
   1841      1     19     41      0.9369E-01      0.6804E+06
   1842      1     19     42      0.9127E-01      0.6804E+06
   1843      1     19     43      0.9041E-01      0.6804E+06
   1844      1     19     44      0.9178E-01      0.6804E+06
   1845      1     19     45      0.9528E-01      0.6804E+06
   1846      1     19     46      0.9760E-01      0.6804E+06
   1847      1     19     47      0.9823E-01      0.6804E+06
   1848      1     19     48      0.9748E-01      0.6804E+06
   1849      1     19     49      0.9529E-01      0.6804E+06
   1850      1     19     50      0.9284E-01      0.6804E+06
   1851      1     19     51      0.9261E-01      0.6804E+06
   1852      1     19     52      0.9243E-01      0.6804E+06
   1853      1     19     53      0.9105E-01      0.6804E+06
   1854      1     19     54      0.8836E-01      0.6804E+06
   1855      1     19     55      0.8527E-01      0.6804E+06
   1856      1     19     56      0.8289E-01      0.6804E+06
   1857      1     19     57      0.8097E-01      0.6804E+06
   1858      1     19     58      0.7977E-01      0.6804E+06
   1859      1     19     59      0.7843E-01      0.6804E+06
   1860      1     19     60      0.7613E-01      0.6804E+06
   1861      1     19     61      0.7399E-01      0.6804E+06
   1862      1     19     62      0.7179E-01      0.6804E+06
   1863      1     19     63      0.6910E-01      0.6804E+06
   1864      1     19     64      0.6662E-01      0.6804E+06
   1865      1     19     65      0.6244E-01      0.6804E+06
   1866      1     19     66      0.5576E-01      0.6804E+06
   1867      1     19     67      0.4981E-01      0.6804E+06
   1868      1     19     68      0.4356E-01      0.6804E+06
   1869      1     19     69      0.3713E-01      0.6804E+06
   1870      1     19     70      0.2787E-01      0.6804E+06
   1871      1     19     71      0.1825E-01      0.6804E+06
   1872      1     19     72      0.1143E-01      0.6804E+06
   1873      1     19     73       0.000          0.6804E+06
   1874      1     19     74       0.000          0.6804E+06
   1875      1     19     75       0.000          0.6804E+06
   1876      1     19     76     -0.4811E-01      0.6804E+06
   1877      1     19     77     -0.6180E-01      0.6804E+06
   1878      1     19     78     -0.7619E-01      0.6804E+06
   1879      1     19     79     -0.8926E-01      0.6804E+06
   1880      1     19     80     -0.9948E-01      0.6804E+06
   1881      1     19     81     -0.1092          0.6804E+06
   1882      1     19     82     -0.1171          0.6804E+06
   1883      1     19     83     -0.1248          0.6804E+06
   1884      1     19     84     -0.1330          0.6804E+06
   1885      1     19     85     -0.1743          0.6804E+06
   1886      1     19     86     -0.1870          0.6804E+06
   1887      1     19     87     -0.1366          0.6804E+06
   1888      1     19     88     -0.9559E-01      0.6804E+06
   1889      1     19     89     -0.5371E-01      0.6804E+06
   1890      1     19     90     -0.3088E-01      0.6804E+06
   1891      1     19     91       0.000          0.6804E+06
   1892      1     19     92      0.6593E-02      0.6804E+06
   1893      1     19     93      0.2592E-01      0.6804E+06
   1894      1     19     94      0.4330E-01      0.6804E+06
   1895      1     19     95      0.5508E-01      0.6804E+06
   1896      1     19     96      0.6197E-01      0.6804E+06
   1897      1     19     97      0.6685E-01      0.6804E+06
   1898      1     19     98      0.6967E-01      0.6804E+06
   1899      1     19     99      0.7151E-01      0.6804E+06
   1900      1     19    100      0.7148E-01      0.6804E+06
   1901      1     20      1      0.5212          0.6804E+06
   1902      1     20      2      0.5070          0.6804E+06
   1903      1     20      3      0.4923          0.6804E+06
   1904      1     20      4      0.4771          0.6804E+06
   1905      1     20      5      0.4665          0.6804E+06
   1906      1     20      6      0.4589          0.6804E+06
   1907      1     20      7      0.4486          0.6804E+06
   1908      1     20      8      0.4348          0.6804E+06
   1909      1     20      9      0.4189          0.6804E+06
   1910      1     20     10      0.3970          0.6804E+06
   1911      1     20     11      0.3752          0.6804E+06
   1912      1     20     12      0.3487          0.6804E+06
   1913      1     20     13      0.3223          0.6804E+06
   1914      1     20     14      0.3000          0.6804E+06
   1915      1     20     15      0.2755          0.6804E+06
   1916      1     20     16      0.2546          0.6804E+06
   1917      1     20     17      0.2317          0.6804E+06
   1918      1     20     18      0.2100          0.6804E+06
   1919      1     20     19      0.1921          0.6804E+06
   1920      1     20     20      0.1726          0.6804E+06
   1921      1     20     21      0.1514          0.6804E+06
   1922      1     20     22      0.1320          0.6804E+06
   1923      1     20     23      0.1095          0.6804E+06
   1924      1     20     24      0.8968E-01      0.6804E+06
   1925      1     20     25      0.6781E-01      0.6804E+06
   1926      1     20     26      0.5087E-01      0.6804E+06
   1927      1     20     27      0.4460E-01      0.6804E+06
   1928      1     20     28      0.4977E-01      0.6804E+06
   1929      1     20     29      0.4771E-01      0.6804E+06
   1930      1     20     30      0.4847E-01      0.6804E+06
   1931      1     20     31      0.5406E-01      0.6804E+06
   1932      1     20     32      0.6286E-01      0.6804E+06
   1933      1     20     33      0.7250E-01      0.6804E+06
   1934      1     20     34      0.7727E-01      0.6804E+06
   1935      1     20     35      0.7922E-01      0.6804E+06
   1936      1     20     36      0.7916E-01      0.6804E+06
   1937      1     20     37      0.7646E-01      0.6804E+06
   1938      1     20     38      0.7621E-01      0.6804E+06
   1939      1     20     39      0.7841E-01      0.6804E+06
   1940      1     20     40      0.8075E-01      0.6804E+06
   1941      1     20     41      0.8079E-01      0.6804E+06
   1942      1     20     42      0.7755E-01      0.6804E+06
   1943      1     20     43      0.7669E-01      0.6804E+06
   1944      1     20     44      0.7909E-01      0.6804E+06
   1945      1     20     45      0.8425E-01      0.6804E+06
   1946      1     20     46      0.8734E-01      0.6804E+06
   1947      1     20     47      0.8883E-01      0.6804E+06
   1948      1     20     51      0.8471E-01      0.6804E+06
   1949      1     20     52      0.8441E-01      0.6804E+06
   1950      1     20     53      0.8326E-01      0.6804E+06
   1951      1     20     54      0.8101E-01      0.6804E+06
   1952      1     20     55      0.7882E-01      0.6804E+06
   1953      1     20     56      0.7735E-01      0.6804E+06
   1954      1     20     57      0.7594E-01      0.6804E+06
   1955      1     20     58      0.7366E-01      0.6804E+06
   1956      1     20     59      0.7195E-01      0.6804E+06
   1957      1     20     60      0.6980E-01      0.6804E+06
   1958      1     20     61      0.6777E-01      0.6804E+06
   1959      1     20     62      0.6493E-01      0.6804E+06
   1960      1     20     63      0.6146E-01      0.6804E+06
   1961      1     20     64      0.5748E-01      0.6804E+06
   1962      1     20     65      0.5119E-01      0.6804E+06
   1963      1     20     66      0.4242E-01      0.6804E+06
   1964      1     20     67      0.3469E-01      0.6804E+06
   1965      1     20     68      0.2779E-01      0.6804E+06
   1966      1     20     69      0.2071E-01      0.6804E+06
   1967      1     20     70      0.9427E-02      0.6804E+06
   1968      1     20     71       0.000          0.6804E+06
   1969      1     20     72       0.000          0.6804E+06
   1970      1     20     73       0.000          0.6804E+06
   1971      1     20     74     -0.5225E-01      0.6804E+06
   1972      1     20     75     -0.6646E-01      0.6804E+06
   1973      1     20     76     -0.8003E-01      0.6804E+06
   1974      1     20     77     -0.8980E-01      0.6804E+06
   1975      1     20     78     -0.9913E-01      0.6804E+06
   1976      1     20     79     -0.1119          0.6804E+06
   1977      1     20     80     -0.1193          0.6804E+06
   1978      1     20     81     -0.1278          0.6804E+06
   1979      1     20     82     -0.1351          0.6804E+06
   1980      1     20     83     -0.1553          0.6804E+06
   1981      1     20     84     -0.1670          0.6804E+06
   1982      1     20     85     -0.1711          0.6804E+06
   1983      1     20     86     -0.1401          0.6804E+06
   1984      1     20     87     -0.9201E-01      0.6804E+06
   1985      1     20     88     -0.5229E-01      0.6804E+06
   1986      1     20     89       0.000          0.6804E+06
   1987      1     20     90       0.000          0.6804E+06
   1988      1     20     91      0.7465E-02      0.6804E+06
   1989      1     20     92      0.2308E-01      0.6804E+06
   1990      1     20     93      0.3655E-01      0.6804E+06
   1991      1     20     94      0.4974E-01      0.6804E+06
   1992      1     20     95      0.5962E-01      0.6804E+06
   1993      1     20     96      0.6572E-01      0.6804E+06
   1994      1     20     97      0.7040E-01      0.6804E+06
   1995      1     20     98      0.7301E-01      0.6804E+06
   1996      1     20     99      0.7457E-01      0.6804E+06
   1997      1     20    100      0.7499E-01      0.6804E+06
   1998      1     21      1      0.5283          0.6804E+06
   1999      1     21      2      0.5123          0.6804E+06
   2000      1     21      3      0.4940          0.6804E+06
   2001      1     21      4      0.4748          0.6804E+06
   2002      1     21      5      0.4628          0.6804E+06
   2003      1     21      6      0.4548          0.6804E+06
   2004      1     21      7      0.4436          0.6804E+06
   2005      1     21      8      0.4298          0.6804E+06
   2006      1     21      9      0.4154          0.6804E+06
   2007      1     21     10      0.3965          0.6804E+06
   2008      1     21     11      0.3781          0.6804E+06
   2009      1     21     12      0.3558          0.6804E+06
   2010      1     21     13      0.3322          0.6804E+06
   2011      1     21     14      0.3099          0.6804E+06
   2012      1     21     15      0.2825          0.6804E+06
   2013      1     21     16      0.2579          0.6804E+06
   2014      1     21     17      0.2310          0.6804E+06
   2015      1     21     18      0.2059          0.6804E+06
   2016      1     21     19      0.1857          0.6804E+06
   2017      1     21     20      0.1643          0.6804E+06
   2018      1     21     21      0.1420          0.6804E+06
   2019      1     21     22      0.1219          0.6804E+06
   2020      1     21     23      0.9860E-01      0.6804E+06
   2021      1     21     24      0.7769E-01      0.6804E+06
   2022      1     21     25      0.5323E-01      0.6804E+06
   2023      1     21     26      0.2662E-01      0.6804E+06
   2024      1     21     27      0.1951E-01      0.6804E+06
   2025      1     21     28      0.4433E-01      0.6804E+06
   2026      1     21     29      0.2549E-01      0.6804E+06
   2027      1     21     30      0.2099E-01      0.6804E+06
   2028      1     21     31      0.2971E-01      0.6804E+06
   2029      1     21     32      0.4322E-01      0.6804E+06
   2030      1     21     33      0.5650E-01      0.6804E+06
   2031      1     21     34      0.6593E-01      0.6804E+06
   2032      1     21     35      0.7071E-01      0.6804E+06
   2033      1     21     36      0.7173E-01      0.6804E+06
   2034      1     21     37      0.6967E-01      0.6804E+06
   2035      1     21     38      0.6856E-01      0.6804E+06
   2036      1     21     39      0.6954E-01      0.6804E+06
   2037      1     21     40      0.7109E-01      0.6804E+06
   2038      1     21     41      0.6987E-01      0.6804E+06
   2039      1     21     56      0.6843E-01      0.6804E+06
   2040      1     21     57      0.6701E-01      0.6804E+06
   2041      1     21     58      0.6502E-01      0.6804E+06
   2042      1     21     59      0.6282E-01      0.6804E+06
   2043      1     21     60      0.5955E-01      0.6804E+06
   2044      1     21     61      0.5637E-01      0.6804E+06
   2045      1     21     62      0.5239E-01      0.6804E+06
   2046      1     21     63      0.4805E-01      0.6804E+06
   2047      1     21     64      0.4269E-01      0.6804E+06
   2048      1     21     65      0.3382E-01      0.6804E+06
   2049      1     21     66      0.2187E-01      0.6804E+06
   2050      1     21     67      0.1296E-01      0.6804E+06
   2051      1     21     68      0.5722E-02      0.6804E+06
   2052      1     21     69       0.000          0.6804E+06
   2053      1     21     70       0.000          0.6804E+06
   2054      1     21     71       0.000          0.6804E+06
   2055      1     21     72     -0.5984E-01      0.6804E+06
   2056      1     21     73     -0.7586E-01      0.6804E+06
   2057      1     21     74     -0.8862E-01      0.6804E+06
   2058      1     21     75     -0.9608E-01      0.6804E+06
   2059      1     21     76     -0.1089          0.6804E+06
   2060      1     21     77     -0.1181          0.6804E+06
   2061      1     21     78     -0.1232          0.6804E+06
   2062      1     21     79     -0.1322          0.6804E+06
   2063      1     21     80     -0.1400          0.6804E+06
   2064      1     21     81     -0.1672          0.6804E+06
   2065      1     21     82     -0.2166          0.6804E+06
   2066      1     21     83     -0.2055          0.6804E+06
   2067      1     21     84     -0.1453          0.6804E+06
   2068      1     21     85     -0.1382          0.6804E+06
   2069      1     21     86     -0.8910E-01      0.6804E+06
   2070      1     21     87     -0.4775E-01      0.6804E+06
   2071      1     21     88       0.000          0.6804E+06
   2072      1     21     89       0.000          0.6804E+06
   2073      1     21     90      0.1509E-01      0.6804E+06
   2074      1     21     91      0.2457E-01      0.6804E+06
   2075      1     21     92      0.3599E-01      0.6804E+06
   2076      1     21     93      0.4528E-01      0.6804E+06
   2077      1     21     94      0.5461E-01      0.6804E+06
   2078      1     21     95      0.6213E-01      0.6804E+06
   2079      1     21     96      0.6685E-01      0.6804E+06
   2080      1     21     97      0.7109E-01      0.6804E+06
   2081      1     21     98      0.7354E-01      0.6804E+06
   2082      1     21     99      0.7491E-01      0.6804E+06
   2083      1     21    100      0.7587E-01      0.6804E+06
   2084      1     22      1      0.5397          0.6804E+06
   2085      1     22      2      0.5251          0.6804E+06
   2086      1     22      3      0.5058          0.6804E+06
   2087      1     22      4      0.4843          0.6804E+06
   2088      1     22      5      0.4680          0.6804E+06
   2089      1     22      6      0.4561          0.6804E+06
   2090      1     22      7      0.4421          0.6804E+06
   2091      1     22      8      0.4279          0.6804E+06
   2092      1     22      9      0.4141          0.6804E+06
   2093      1     22     10      0.3970          0.6804E+06
   2094      1     22     11      0.3808          0.6804E+06
   2095      1     22     12      0.3618          0.6804E+06
   2096      1     22     13      0.3414          0.6804E+06
   2097      1     22     14      0.3195          0.6804E+06
   2098      1     22     15      0.2880          0.6804E+06
   2099      1     22     16      0.2597          0.6804E+06
   2100      1     22     17      0.2289          0.6804E+06
   2101      1     22     18      0.2005          0.6804E+06
   2102      1     22     19      0.1781          0.6804E+06
   2103      1     22     20      0.1552          0.6804E+06
   2104      1     22     21      0.1331          0.6804E+06
   2105      1     22     22      0.1138          0.6804E+06
   2106      1     22     23      0.9152E-01      0.6804E+06
   2107      1     22     24      0.7177E-01      0.6804E+06
   2108      1     22     25      0.5003E-01      0.6804E+06
   2109      1     22     26      0.3170E-01      0.6804E+06
   2110      1     22     27      0.1332E-01      0.6804E+06
   2111      1     22     28      0.2628E-01      0.6804E+06
   2112      1     22     29       0.000          0.6804E+06
   2113      1     22     30       0.000          0.6804E+06
   2114      1     22     31      0.1089E-01      0.6804E+06
   2115      1     22     32      0.3030E-01      0.6804E+06
   2116      1     22     33      0.4736E-01      0.6804E+06
   2117      1     22     34      0.5962E-01      0.6804E+06
   2118      1     22     35      0.6580E-01      0.6804E+06
   2119      1     22     36      0.6719E-01      0.6804E+06
   2120      1     22     37      0.6602E-01      0.6804E+06
   2121      1     22     38      0.6520E-01      0.6804E+06
   2122      1     22     39      0.6522E-01      0.6804E+06
   2123      1     22     40      0.6541E-01      0.6804E+06
   2124      1     22     58      0.5167E-01      0.6804E+06
   2125      1     22     59      0.4858E-01      0.6804E+06
   2126      1     22     60      0.4324E-01      0.6804E+06
   2127      1     22     61      0.3784E-01      0.6804E+06
   2128      1     22     62      0.3180E-01      0.6804E+06
   2129      1     22     63      0.2760E-01      0.6804E+06
   2130      1     22     64      0.2118E-01      0.6804E+06
   2131      1     22     65      0.1040E-01      0.6804E+06
   2132      1     22     66       0.000          0.6804E+06
   2133      1     22     67       0.000          0.6804E+06
   2134      1     22     68       0.000          0.6804E+06
   2135      1     22     69     -0.5388E-01      0.6804E+06
   2136      1     22     70     -0.7121E-01      0.6804E+06
   2137      1     22     71     -0.8543E-01      0.6804E+06
   2138      1     22     72     -0.9678E-01      0.6804E+06
   2139      1     22     73     -0.1098          0.6804E+06
   2140      1     22     74     -0.1186          0.6804E+06
   2141      1     22     75     -0.1246          0.6804E+06
   2142      1     22     76     -0.1308          0.6804E+06
   2143      1     22     77     -0.1319          0.6804E+06
   2144      1     22     78     -0.1394          0.6804E+06
   2145      1     22     79     -0.1773          0.6804E+06
   2146      1     22     80     -0.2159          0.6804E+06
   2147      1     22     81     -0.1942          0.6804E+06
   2148      1     22     82     -0.1955          0.6804E+06
   2149      1     22     83     -0.1474          0.6804E+06
   2150      1     22     84     -0.1060          0.6804E+06
   2151      1     22     85     -0.6993E-01      0.6804E+06
   2152      1     22     86       0.000          0.6804E+06
   2153      1     22     87       0.000          0.6804E+06
   2154      1     22     88       0.000          0.6804E+06
   2155      1     22     89      0.1211E-01      0.6804E+06
   2156      1     22     90      0.2588E-01      0.6804E+06
   2157      1     22     91      0.3478E-01      0.6804E+06
   2158      1     22     92      0.4396E-01      0.6804E+06
   2159      1     22     93      0.5101E-01      0.6804E+06
   2160      1     22     94      0.5786E-01      0.6804E+06
   2161      1     22     95      0.6308E-01      0.6804E+06
   2162      1     22     96      0.6635E-01      0.6804E+06
   2163      1     22     97      0.6944E-01      0.6804E+06
   2164      1     22     98      0.7140E-01      0.6804E+06
   2165      1     22     99      0.7274E-01      0.6804E+06
   2166      1     22    100      0.7385E-01      0.6804E+06
   2167      1     23      1      0.5520          0.6804E+06
   2168      1     23      2      0.5408          0.6804E+06
   2169      1     23      3      0.5202          0.6804E+06
   2170      1     23      4      0.4966          0.6804E+06
   2171      1     23      5      0.4765          0.6804E+06
   2172      1     23      6      0.4610          0.6804E+06
   2173      1     23      7      0.4440          0.6804E+06
   2174      1     23      8      0.4285          0.6804E+06
   2175      1     23      9      0.4144          0.6804E+06
   2176      1     23     10      0.3974          0.6804E+06
   2177      1     23     11      0.3819          0.6804E+06
   2178      1     23     12      0.3644          0.6804E+06
   2179      1     23     13      0.3474          0.6804E+06
   2180      1     23     14      0.3260          0.6804E+06
   2181      1     23     15      0.2897          0.6804E+06
   2182      1     23     16      0.2587          0.6804E+06
   2183      1     23     17      0.2254          0.6804E+06
   2184      1     23     18      0.1947          0.6804E+06
   2185      1     23     19      0.1708          0.6804E+06
   2186      1     23     20      0.1478          0.6804E+06
   2187      1     23     21      0.1265          0.6804E+06
   2188      1     23     22      0.1084          0.6804E+06
   2189      1     23     23      0.8793E-01      0.6804E+06
   2190      1     23     24      0.7006E-01      0.6804E+06
   2191      1     23     25      0.5140E-01      0.6804E+06
   2192      1     23     26      0.3883E-01      0.6804E+06
   2193      1     23     27      0.2785E-01      0.6804E+06
   2194      1     23     28       0.000          0.6804E+06
   2195      1     23     29       0.000          0.6804E+06
   2196      1     23     30       0.000          0.6804E+06
   2197      1     23     31      0.9357E-02      0.6804E+06
   2198      1     23     32      0.2478E-01      0.6804E+06
   2199      1     23     33      0.4210E-01      0.6804E+06
   2200      1     23     34      0.5482E-01      0.6804E+06
   2201      1     23     35      0.6166E-01      0.6804E+06
   2202      1     23     36      0.6455E-01      0.6804E+06
   2203      1     23     37      0.6526E-01      0.6804E+06
   2204      1     23     38      0.6508E-01      0.6804E+06
   2205      1     23     59      0.3087E-01      0.6804E+06
   2206      1     23     60      0.2388E-01      0.6804E+06
   2207      1     23     61      0.1734E-01      0.6804E+06
   2208      1     23     62      0.9759E-02      0.6804E+06
   2209      1     23     63      0.3691E-04      0.6804E+06
   2210      1     23     64       0.000          0.6804E+06
   2211      1     23     65       0.000          0.6804E+06
   2212      1     23     66       0.000          0.6804E+06
   2213      1     23     67     -0.6429E-01      0.6804E+06
   2214      1     23     68     -0.7789E-01      0.6804E+06
   2215      1     23     69     -0.8895E-01      0.6804E+06
   2216      1     23     70     -0.9971E-01      0.6804E+06
   2217      1     23     71     -0.1150          0.6804E+06
   2218      1     23     72     -0.1293          0.6804E+06
   2219      1     23     73     -0.1382          0.6804E+06
   2220      1     23     74     -0.1395          0.6804E+06
   2221      1     23     75     -0.1378          0.6804E+06
   2222      1     23     76     -0.1377          0.6804E+06
   2223      1     23     77     -0.1564          0.6804E+06
   2224      1     23     78     -0.1950          0.6804E+06
   2225      1     23     79     -0.2110          0.6804E+06
   2226      1     23     80     -0.1932          0.6804E+06
   2227      1     23     81     -0.1496          0.6804E+06
   2228      1     23     82     -0.1241          0.6804E+06
   2229      1     23     83     -0.1013          0.6804E+06
   2230      1     23     84     -0.5873E-01      0.6804E+06
   2231      1     23     85       0.000          0.6804E+06
   2232      1     23     86       0.000          0.6804E+06
   2233      1     23     87       0.000          0.6804E+06
   2234      1     23     88      0.6357E-02      0.6804E+06
   2235      1     23     89      0.2101E-01      0.6804E+06
   2236      1     23     90      0.3282E-01      0.6804E+06
   2237      1     23     91      0.4095E-01      0.6804E+06
   2238      1     23     92      0.4867E-01      0.6804E+06
   2239      1     23     93      0.5437E-01      0.6804E+06
   2240      1     23     94      0.5959E-01      0.6804E+06
   2241      1     23     95      0.6295E-01      0.6804E+06
   2242      1     23     96      0.6479E-01      0.6804E+06
   2243      1     23     97      0.6647E-01      0.6804E+06
   2244      1     23     98      0.6781E-01      0.6804E+06
   2245      1     23     99      0.6939E-01      0.6804E+06
   2246      1     23    100      0.7081E-01      0.6804E+06
   2247      1     24      1      0.5624          0.6804E+06
   2248      1     24      2      0.5533          0.6804E+06
   2249      1     24      3      0.5331          0.6804E+06
   2250      1     24      4      0.5089          0.6804E+06
   2251      1     24      5      0.4865          0.6804E+06
   2252      1     24      6      0.4684          0.6804E+06
   2253      1     24      7      0.4489          0.6804E+06
   2254      1     24      8      0.4311          0.6804E+06
   2255      1     24      9      0.4154          0.6804E+06
   2256      1     24     10      0.3970          0.6804E+06
   2257      1     24     11      0.3804          0.6804E+06
   2258      1     24     12      0.3613          0.6804E+06
   2259      1     24     13      0.3411          0.6804E+06
   2260      1     24     14      0.3183          0.6804E+06
   2261      1     24     15      0.2838          0.6804E+06
   2262      1     24     16      0.2530          0.6804E+06
   2263      1     24     17      0.2191          0.6804E+06
   2264      1     24     18      0.1875          0.6804E+06
   2265      1     24     19      0.1630          0.6804E+06
   2266      1     24     20      0.1408          0.6804E+06
   2267      1     24     21      0.1210          0.6804E+06
   2268      1     24     22      0.1045          0.6804E+06
   2269      1     24     23      0.8624E-01      0.6804E+06
   2270      1     24     24      0.7046E-01      0.6804E+06
   2271      1     24     25      0.5300E-01      0.6804E+06
   2272      1     24     26      0.3452E-01      0.6804E+06
   2273      1     24     27      0.1671E-01      0.6804E+06
   2274      1     24     28       0.000          0.6804E+06
   2275      1     24     29       0.000          0.6804E+06
   2276      1     24     30       0.000          0.6804E+06
   2277      1     24     31      0.8186E-02      0.6804E+06
   2278      1     24     32      0.2327E-01      0.6804E+06
   2279      1     24     33      0.3770E-01      0.6804E+06
   2280      1     24     34      0.4867E-01      0.6804E+06
   2281      1     24     35      0.5470E-01      0.6804E+06
   2282      1     24     36      0.5938E-01      0.6804E+06
   2283      1     24     37      0.6178E-01      0.6804E+06
   2284      1     24     59      0.2941E-02      0.6804E+06
   2285      1     24     60       0.000          0.6804E+06
   2286      1     24     61       0.000          0.6804E+06
   2287      1     24     62       0.000          0.6804E+06
   2288      1     24     63       0.000          0.6804E+06
   2289      1     24     64     -0.6944E-01      0.6804E+06
   2290      1     24     65     -0.8212E-01      0.6804E+06
   2291      1     24     66     -0.9335E-01      0.6804E+06
   2292      1     24     67     -0.1019          0.6804E+06
   2293      1     24     68     -0.1167          0.6804E+06
   2294      1     24     69     -0.1275          0.6804E+06
   2295      1     24     70     -0.1398          0.6804E+06
   2296      1     24     71     -0.1495          0.6804E+06
   2297      1     24     72     -0.1539          0.6804E+06
   2298      1     24     73     -0.1523          0.6804E+06
   2299      1     24     74     -0.1554          0.6804E+06
   2300      1     24     75     -0.1661          0.6804E+06
   2301      1     24     76     -0.1933          0.6804E+06
   2302      1     24     77     -0.1703          0.6804E+06
   2303      1     24     78     -0.1617          0.6804E+06
   2304      1     24     79     -0.1706          0.6804E+06
   2305      1     24     80     -0.1427          0.6804E+06
   2306      1     24     81     -0.1124          0.6804E+06
   2307      1     24     82     -0.9734E-01      0.6804E+06
   2308      1     24     83     -0.6116E-01      0.6804E+06
   2309      1     24     84       0.000          0.6804E+06
   2310      1     24     85       0.000          0.6804E+06
   2311      1     24     86       0.000          0.6804E+06
   2312      1     24     87      0.2322E-02      0.6804E+06
   2313      1     24     88      0.1604E-01      0.6804E+06
   2314      1     24     89      0.2915E-01      0.6804E+06
   2315      1     24     90      0.3942E-01      0.6804E+06
   2316      1     24     91      0.4656E-01      0.6804E+06
   2317      1     24     92      0.5278E-01      0.6804E+06
   2318      1     24     93      0.5706E-01      0.6804E+06
   2319      1     24     94      0.6060E-01      0.6804E+06
   2320      1     24     95      0.6215E-01      0.6804E+06
   2321      1     24     96      0.6236E-01      0.6804E+06
   2322      1     24     97      0.6226E-01      0.6804E+06
   2323      1     24     98      0.6281E-01      0.6804E+06
   2324      1     24     99      0.6511E-01      0.6804E+06
   2325      1     24    100      0.6697E-01      0.6804E+06
   2326      1     25      1      0.5653          0.6804E+06
   2327      1     25      2      0.5549          0.6804E+06
   2328      1     25      3      0.5380          0.6804E+06
   2329      1     25      4      0.5159          0.6804E+06
   2330      1     25      5      0.4937          0.6804E+06
   2331      1     25      6      0.4749          0.6804E+06
   2332      1     25      7      0.4542          0.6804E+06
   2333      1     25      8      0.4340          0.6804E+06
   2334      1     25      9      0.4163          0.6804E+06
   2335      1     25     10      0.3957          0.6804E+06
   2336      1     25     11      0.3771          0.6804E+06
   2337      1     25     12      0.3553          0.6804E+06
   2338      1     25     13      0.3314          0.6804E+06
   2339      1     25     14      0.3072          0.6804E+06
   2340      1     25     15      0.2747          0.6804E+06
   2341      1     25     16      0.2452          0.6804E+06
   2342      1     25     17      0.2125          0.6804E+06
   2343      1     25     18      0.1819          0.6804E+06
   2344      1     25     19      0.1584          0.6804E+06
   2345      1     25     20      0.1368          0.6804E+06
   2346      1     25     21      0.1181          0.6804E+06
   2347      1     25     22      0.1030          0.6804E+06
   2348      1     25     23      0.8645E-01      0.6804E+06
   2349      1     25     24      0.7199E-01      0.6804E+06
   2350      1     25     25      0.5572E-01      0.6804E+06
   2351      1     25     26      0.3935E-01      0.6804E+06
   2352      1     25     27      0.2706E-01      0.6804E+06
   2353      1     25     28      0.1401E-01      0.6804E+06
   2354      1     25     29       0.000          0.6804E+06
   2355      1     25     30       0.000          0.6804E+06
   2356      1     25     31       0.000          0.6804E+06
   2357      1     25     32      0.1571E-01      0.6804E+06
   2358      1     25     33      0.3252E-01      0.6804E+06
   2359      1     25     34      0.3917E-01      0.6804E+06
   2360      1     25     35      0.4461E-01      0.6804E+06
   2361      1     25     36      0.5089E-01      0.6804E+06
   2362      1     25     60     -0.5845E-01      0.6804E+06
   2363      1     25     61     -0.6980E-01      0.6804E+06
   2364      1     25     62     -0.8115E-01      0.6804E+06
   2365      1     25     63     -0.9852E-01      0.6804E+06
   2366      1     25     64     -0.1112          0.6804E+06
   2367      1     25     65     -0.1245          0.6804E+06
   2368      1     25     66     -0.1429          0.6804E+06
   2369      1     25     67     -0.1540          0.6804E+06
   2370      1     25     68     -0.1563          0.6804E+06
   2371      1     25     69     -0.1533          0.6804E+06
   2372      1     25     70     -0.1554          0.6804E+06
   2373      1     25     71     -0.1575          0.6804E+06
   2374      1     25     72     -0.1625          0.6804E+06
   2375      1     25     73     -0.1936          0.6804E+06
   2376      1     25     74     -0.2176          0.6804E+06
   2377      1     25     75     -0.2075          0.6804E+06
   2378      1     25     76     -0.1673          0.6804E+06
   2379      1     25     77     -0.1284          0.6804E+06
   2380      1     25     78     -0.1172          0.6804E+06
   2381      1     25     79     -0.1462          0.6804E+06
   2382      1     25     80     -0.1218          0.6804E+06
   2383      1     25     81     -0.9369E-01      0.6804E+06
   2384      1     25     82     -0.6169E-01      0.6804E+06
   2385      1     25     83       0.000          0.6804E+06
   2386      1     25     84       0.000          0.6804E+06
   2387      1     25     85       0.000          0.6804E+06
   2388      1     25     86       0.000          0.6804E+06
   2389      1     25     87      0.1247E-01      0.6804E+06
   2390      1     25     88      0.2401E-01      0.6804E+06
   2391      1     25     89      0.3567E-01      0.6804E+06
   2392      1     25     90      0.4502E-01      0.6804E+06
   2393      1     25     91      0.5082E-01      0.6804E+06
   2394      1     25     92      0.5601E-01      0.6804E+06
   2395      1     25     93      0.5913E-01      0.6804E+06
   2396      1     25     94      0.6110E-01      0.6804E+06
   2397      1     25     95      0.6148E-01      0.6804E+06
   2398      1     25     96      0.6053E-01      0.6804E+06
   2399      1     25     97      0.5908E-01      0.6804E+06
   2400      1     25     98      0.5901E-01      0.6804E+06
   2401      1     25     99      0.6198E-01      0.6804E+06
   2402      1     25    100      0.6405E-01      0.6804E+06
   2403      1     26      1      0.5662          0.6804E+06
   2404      1     26      2      0.5547          0.6804E+06
   2405      1     26      3      0.5400          0.6804E+06
   2406      1     26      4      0.5203          0.6804E+06
   2407      1     26      5      0.4994          0.6804E+06
   2408      1     26      6      0.4808          0.6804E+06
   2409      1     26      7      0.4592          0.6804E+06
   2410      1     26      8      0.4370          0.6804E+06
   2411      1     26      9      0.4169          0.6804E+06
   2412      1     26     10      0.3932          0.6804E+06
   2413      1     26     11      0.3718          0.6804E+06
   2414      1     26     12      0.3464          0.6804E+06
   2415      1     26     13      0.3195          0.6804E+06
   2416      1     26     14      0.2940          0.6804E+06
   2417      1     26     15      0.2625          0.6804E+06
   2418      1     26     16      0.2345          0.6804E+06
   2419      1     26     17      0.2036          0.6804E+06
   2420      1     26     18      0.1750          0.6804E+06
   2421      1     26     19      0.1534          0.6804E+06
   2422      1     26     20      0.1329          0.6804E+06
   2423      1     26     21      0.1157          0.6804E+06
   2424      1     26     22      0.1024          0.6804E+06
   2425      1     26     23      0.8794E-01      0.6804E+06
   2426      1     26     24      0.7524E-01      0.6804E+06
   2427      1     26     25      0.6133E-01      0.6804E+06
   2428      1     26     26      0.4701E-01      0.6804E+06
   2429      1     26     27      0.3422E-01      0.6804E+06
   2430      1     26     28      0.2046E-01      0.6804E+06
   2431      1     26     29      0.3216E-02      0.6804E+06
   2432      1     26     30      0.6492E-02      0.6804E+06
   2433      1     26     31      0.1430E-01      0.6804E+06
   2434      1     26     32      0.1045E-01      0.6804E+06
   2435      1     26     33      0.1367E-01      0.6804E+06
   2436      1     26     34      0.2058E-01      0.6804E+06
   2437      1     26     35      0.2278E-01      0.6804E+06
   2438      1     26     36      0.3259E-01      0.6804E+06
   2439      1     26     60     -0.1136          0.6804E+06
   2440      1     26     61     -0.1314          0.6804E+06
   2441      1     26     62     -0.1392          0.6804E+06
   2442      1     26     63     -0.1579          0.6804E+06
   2443      1     26     64     -0.1656          0.6804E+06
   2444      1     26     65     -0.1685          0.6804E+06
   2445      1     26     66     -0.1647          0.6804E+06
   2446      1     26     67     -0.1576          0.6804E+06
   2447      1     26     68     -0.1543          0.6804E+06
   2448      1     26     69     -0.1562          0.6804E+06
   2449      1     26     70     -0.1770          0.6804E+06
   2450      1     26     71     -0.2020          0.6804E+06
   2451      1     26     72     -0.2427          0.6804E+06
   2452      1     26     73     -0.2004          0.6804E+06
   2453      1     26     74     -0.1797          0.6804E+06
   2454      1     26     75     -0.1721          0.6804E+06
   2455      1     26     76     -0.1524          0.6804E+06
   2456      1     26     77     -0.1368          0.6804E+06
   2457      1     26     78     -0.1045          0.6804E+06
   2458      1     26     79     -0.1009          0.6804E+06
   2459      1     26     80     -0.8650E-01      0.6804E+06
   2460      1     26     81     -0.5502E-01      0.6804E+06
   2461      1     26     82       0.000          0.6804E+06
   2462      1     26     83       0.000          0.6804E+06
   2463      1     26     84       0.000          0.6804E+06
   2464      1     26     85      0.3170E-02      0.6804E+06
   2465      1     26     86      0.1374E-01      0.6804E+06
   2466      1     26     87      0.2449E-01      0.6804E+06
   2467      1     26     88      0.3370E-01      0.6804E+06
   2468      1     26     89      0.4341E-01      0.6804E+06
   2469      1     26     90      0.5110E-01      0.6804E+06
   2470      1     26     91      0.5584E-01      0.6804E+06
   2471      1     26     92      0.5959E-01      0.6804E+06
   2472      1     26     93      0.6149E-01      0.6804E+06
   2473      1     26     94      0.6230E-01      0.6804E+06
   2474      1     26     95      0.6188E-01      0.6804E+06
   2475      1     26     96      0.6060E-01      0.6804E+06
   2476      1     26     97      0.5918E-01      0.6804E+06
   2477      1     26     98      0.5893E-01      0.6804E+06
   2478      1     26     99      0.6070E-01      0.6804E+06
   2479      1     26    100      0.6231E-01      0.6804E+06
   2480      1     27      1      0.5670          0.6804E+06
   2481      1     27      2      0.5548          0.6804E+06
   2482      1     27      3      0.5411          0.6804E+06
   2483      1     27      4      0.5230          0.6804E+06
   2484      1     27      5      0.5033          0.6804E+06
   2485      1     27      6      0.4853          0.6804E+06
   2486      1     27      7      0.4633          0.6804E+06
   2487      1     27      8      0.4393          0.6804E+06
   2488      1     27      9      0.4168          0.6804E+06
   2489      1     27     10      0.3899          0.6804E+06
   2490      1     27     11      0.3657          0.6804E+06
   2491      1     27     12      0.3373          0.6804E+06
   2492      1     27     13      0.3080          0.6804E+06
   2493      1     27     14      0.2813          0.6804E+06
   2494      1     27     15      0.2500          0.6804E+06
   2495      1     27     16      0.2230          0.6804E+06
   2496      1     27     17      0.1934          0.6804E+06
   2497      1     27     18      0.1666          0.6804E+06
   2498      1     27     19      0.1470          0.6804E+06
   2499      1     27     20      0.1288          0.6804E+06
   2500      1     27     21      0.1138          0.6804E+06
   2501      1     27     22      0.1025          0.6804E+06
   2502      1     27     23      0.9048E-01      0.6804E+06
   2503      1     27     24      0.7985E-01      0.6804E+06
   2504      1     27     25      0.6826E-01      0.6804E+06
   2505      1     27     26      0.5537E-01      0.6804E+06
   2506      1     27     27      0.4182E-01      0.6804E+06
   2507      1     27     28      0.2446E-01      0.6804E+06
   2508      1     27     29      0.7162E-02      0.6804E+06
   2509      1     27     30      0.1566E-02      0.6804E+06
   2510      1     27     31       0.000          0.6804E+06
   2511      1     27     32       0.000          0.6804E+06
   2512      1     27     33      0.7411E-02      0.6804E+06
   2513      1     27     34      0.1019E-01      0.6804E+06
   2514      1     27     35      0.9729E-02      0.6804E+06
   2515      1     27     60     -0.1669          0.6804E+06
   2516      1     27     61     -0.1695          0.6804E+06
   2517      1     27     62     -0.1695          0.6804E+06
   2518      1     27     63     -0.1640          0.6804E+06
   2519      1     27     64     -0.1552          0.6804E+06
   2520      1     27     65     -0.1487          0.6804E+06
   2521      1     27     66     -0.1467          0.6804E+06
   2522      1     27     67     -0.1566          0.6804E+06
   2523      1     27     68     -0.1705          0.6804E+06
   2524      1     27     69     -0.1952          0.6804E+06
   2525      1     27     70     -0.2166          0.6804E+06
   2526      1     27     71     -0.1907          0.6804E+06
   2527      1     27     72     -0.1551          0.6804E+06
   2528      1     27     73     -0.1254          0.6804E+06
   2529      1     27     74     -0.1171          0.6804E+06
   2530      1     27     75     -0.1069          0.6804E+06
   2531      1     27     76     -0.1040          0.6804E+06
   2532      1     27     77     -0.1249          0.6804E+06
   2533      1     27     78     -0.1072          0.6804E+06
   2534      1     27     79     -0.8735E-01      0.6804E+06
   2535      1     27     80       0.000          0.6804E+06
   2536      1     27     81       0.000          0.6804E+06
   2537      1     27     82       0.000          0.6804E+06
   2538      1     27     83       0.000          0.6804E+06
   2539      1     27     84      0.8255E-02      0.6804E+06
   2540      1     27     85      0.1729E-01      0.6804E+06
   2541      1     27     86      0.2705E-01      0.6804E+06
   2542      1     27     87      0.3572E-01      0.6804E+06
   2543      1     27     88      0.4322E-01      0.6804E+06
   2544      1     27     89      0.5101E-01      0.6804E+06
   2545      1     27     90      0.5687E-01      0.6804E+06
   2546      1     27     91      0.6061E-01      0.6804E+06
   2547      1     27     92      0.6297E-01      0.6804E+06
   2548      1     27     93      0.6383E-01      0.6804E+06
   2549      1     27     94      0.6386E-01      0.6804E+06
   2550      1     27     95      0.6304E-01      0.6804E+06
   2551      1     27     96      0.6184E-01      0.6804E+06
   2552      1     27     97      0.6064E-01      0.6804E+06
   2553      1     27     98      0.6021E-01      0.6804E+06
   2554      1     27     99      0.6093E-01      0.6804E+06
   2555      1     27    100      0.6193E-01      0.6804E+06
   2556      1     28      1      0.5681          0.6804E+06
   2557      1     28      2      0.5553          0.6804E+06
   2558      1     28      3      0.5419          0.6804E+06
   2559      1     28      4      0.5244          0.6804E+06
   2560      1     28      5      0.5055          0.6804E+06
   2561      1     28      6      0.4880          0.6804E+06
   2562      1     28      7      0.4664          0.6804E+06
   2563      1     28      8      0.4407          0.6804E+06
   2564      1     28      9      0.4160          0.6804E+06
   2565      1     28     10      0.3865          0.6804E+06
   2566      1     28     11      0.3601          0.6804E+06
   2567      1     28     12      0.3294          0.6804E+06
   2568      1     28     13      0.2984          0.6804E+06
   2569      1     28     14      0.2709          0.6804E+06
   2570      1     28     15      0.2394          0.6804E+06
   2571      1     28     16      0.2126          0.6804E+06
   2572      1     28     17      0.1836          0.6804E+06
   2573      1     28     18      0.1579          0.6804E+06
   2574      1     28     19      0.1401          0.6804E+06
   2575      1     28     20      0.1246          0.6804E+06
   2576      1     28     21      0.1124          0.6804E+06
   2577      1     28     22      0.1032          0.6804E+06
   2578      1     28     23      0.9354E-01      0.6804E+06
   2579      1     28     24      0.8489E-01      0.6804E+06
   2580      1     28     25      0.7478E-01      0.6804E+06
   2581      1     28     26      0.6319E-01      0.6804E+06
   2582      1     28     27      0.5140E-01      0.6804E+06
   2583      1     28     28      0.3795E-01      0.6804E+06
   2584      1     28     29      0.2614E-01      0.6804E+06
   2585      1     28     30      0.1001E-01      0.6804E+06
   2586      1     28     31       0.000          0.6804E+06
   2587      1     28     32       0.000          0.6804E+06
   2588      1     28     33     -0.2370E-01      0.6804E+06
   2589      1     28     34     -0.2966E-01      0.6804E+06
   2590      1     28     35     -0.3834E-01      0.6804E+06
   2591      1     28     60     -0.1601          0.6804E+06
   2592      1     28     61     -0.1565          0.6804E+06
   2593      1     28     62     -0.1534          0.6804E+06
   2594      1     28     63     -0.1489          0.6804E+06
   2595      1     28     64     -0.1477          0.6804E+06
   2596      1     28     65     -0.1612          0.6804E+06
   2597      1     28     66     -0.1845          0.6804E+06
   2598      1     28     67     -0.2015          0.6804E+06
   2599      1     28     68     -0.1858          0.6804E+06
   2600      1     28     69     -0.1682          0.6804E+06
   2601      1     28     70     -0.1525          0.6804E+06
   2602      1     28     71     -0.1304          0.6804E+06
   2603      1     28     72     -0.1094          0.6804E+06
   2604      1     28     73     -0.9369E-01      0.6804E+06
   2605      1     28     74     -0.8945E-01      0.6804E+06
   2606      1     28     75     -0.8233E-01      0.6804E+06
   2607      1     28     76     -0.6371E-01      0.6804E+06
   2608      1     28     77     -0.8235E-01      0.6804E+06
   2609      1     28     78       0.000          0.6804E+06
   2610      1     28     79       0.000          0.6804E+06
   2611      1     28     80       0.000          0.6804E+06
   2612      1     28     81       0.000          0.6804E+06
   2613      1     28     82       0.000          0.6804E+06
   2614      1     28     83      0.4225E-02      0.6804E+06
   2615      1     28     84      0.1971E-01      0.6804E+06
   2616      1     28     85      0.2828E-01      0.6804E+06
   2617      1     28     86      0.3682E-01      0.6804E+06
   2618      1     28     87      0.4423E-01      0.6804E+06
   2619      1     28     88      0.5042E-01      0.6804E+06
   2620      1     28     89      0.5677E-01      0.6804E+06
   2621      1     28     90      0.6140E-01      0.6804E+06
   2622      1     28     91      0.6408E-01      0.6804E+06
   2623      1     28     92      0.6547E-01      0.6804E+06
   2624      1     28     93      0.6569E-01      0.6804E+06
   2625      1     28     94      0.6522E-01      0.6804E+06
   2626      1     28     95      0.6421E-01      0.6804E+06
   2627      1     28     96      0.6312E-01      0.6804E+06
   2628      1     28     97      0.6201E-01      0.6804E+06
   2629      1     28     98      0.6146E-01      0.6804E+06
   2630      1     28     99      0.6161E-01      0.6804E+06
   2631      1     28    100      0.6221E-01      0.6804E+06
   2632      1     29      1      0.5700          0.6804E+06
   2633      1     29      2      0.5563          0.6804E+06
   2634      1     29      3      0.5425          0.6804E+06
   2635      1     29      4      0.5251          0.6804E+06
   2636      1     29      5      0.5063          0.6804E+06
   2637      1     29      6      0.4890          0.6804E+06
   2638      1     29      7      0.4675          0.6804E+06
   2639      1     29      8      0.4403          0.6804E+06
   2640      1     29      9      0.4137          0.6804E+06
   2641      1     29     10      0.3820          0.6804E+06
   2642      1     29     11      0.3536          0.6804E+06
   2643      1     29     12      0.3207          0.6804E+06
   2644      1     29     13      0.2882          0.6804E+06
   2645      1     29     14      0.2600          0.6804E+06
   2646      1     29     15      0.2281          0.6804E+06
   2647      1     29     16      0.2013          0.6804E+06
   2648      1     29     17      0.1726          0.6804E+06
   2649      1     29     18      0.1479          0.6804E+06
   2650      1     29     19      0.1323          0.6804E+06
   2651      1     29     20      0.1201          0.6804E+06
   2652      1     29     21      0.1111          0.6804E+06
   2653      1     29     22      0.1046          0.6804E+06
   2654      1     29     23      0.9788E-01      0.6804E+06
   2655      1     29     24      0.9167E-01      0.6804E+06
   2656      1     29     25      0.8335E-01      0.6804E+06
   2657      1     29     26      0.7366E-01      0.6804E+06
   2658      1     29     27      0.6466E-01      0.6804E+06
   2659      1     29     28      0.5424E-01      0.6804E+06
   2660      1     29     29      0.4269E-01      0.6804E+06
   2661      1     29     30      0.3068E-01      0.6804E+06
   2662      1     29     31      0.1058E-01      0.6804E+06
   2663      1     29     32     -0.2452E-01      0.6804E+06
   2664      1     29     33     -0.6142E-01      0.6804E+06
   2665      1     29     34     -0.1176          0.6804E+06
   2666      1     29     60     -0.1426          0.6804E+06
   2667      1     29     61     -0.1485          0.6804E+06
   2668      1     29     62     -0.1593          0.6804E+06
   2669      1     29     63     -0.1783          0.6804E+06
   2670      1     29     64     -0.1805          0.6804E+06
   2671      1     29     65     -0.1835          0.6804E+06
   2672      1     29     66     -0.1853          0.6804E+06
   2673      1     29     67     -0.1685          0.6804E+06
   2674      1     29     68     -0.1458          0.6804E+06
   2675      1     29     69     -0.1241          0.6804E+06
   2676      1     29     70     -0.1134          0.6804E+06
   2677      1     29     71     -0.1011          0.6804E+06
   2678      1     29     72     -0.7897E-01      0.6804E+06
   2679      1     29     73     -0.6220E-01      0.6804E+06
   2680      1     29     74     -0.6153E-01      0.6804E+06
   2681      1     29     75     -0.5850E-01      0.6804E+06
   2682      1     29     76       0.000          0.6804E+06
   2683      1     29     77       0.000          0.6804E+06
   2684      1     29     78       0.000          0.6804E+06
   2685      1     29     79       0.000          0.6804E+06
   2686      1     29     80       0.000          0.6804E+06
   2687      1     29     81       0.000          0.6804E+06
   2688      1     29     82       0.000          0.6804E+06
   2689      1     29     83      0.1538E-01      0.6804E+06
   2690      1     29     84      0.2834E-01      0.6804E+06
   2691      1     29     85      0.3735E-01      0.6804E+06
   2692      1     29     86      0.4524E-01      0.6804E+06
   2693      1     29     87      0.5186E-01      0.6804E+06
   2694      1     29     88      0.5690E-01      0.6804E+06
   2695      1     29     89      0.6171E-01      0.6804E+06
   2696      1     29     90      0.6499E-01      0.6804E+06
   2697      1     29     91      0.6662E-01      0.6804E+06
   2698      1     29     92      0.6732E-01      0.6804E+06
   2699      1     29     93      0.6720E-01      0.6804E+06
   2700      1     29     94      0.6645E-01      0.6804E+06
   2701      1     29     95      0.6533E-01      0.6804E+06
   2702      1     29     96      0.6422E-01      0.6804E+06
   2703      1     29     97      0.6315E-01      0.6804E+06
   2704      1     29     98      0.6261E-01      0.6804E+06
   2705      1     29     99      0.6248E-01      0.6804E+06
   2706      1     29    100      0.6280E-01      0.6804E+06
   2707      1     30      1      0.5723          0.6804E+06
   2708      1     30      2      0.5574          0.6804E+06
   2709      1     30      3      0.5428          0.6804E+06
   2710      1     30      4      0.5247          0.6804E+06
   2711      1     30      5      0.5052          0.6804E+06
   2712      1     30      6      0.4870          0.6804E+06
   2713      1     30      7      0.4642          0.6804E+06
   2714      1     30      8      0.4366          0.6804E+06
   2715      1     30      9      0.4097          0.6804E+06
   2716      1     30     10      0.3771          0.6804E+06
   2717      1     30     11      0.3475          0.6804E+06
   2718      1     30     12      0.3131          0.6804E+06
   2719      1     30     13      0.2793          0.6804E+06
   2720      1     30     14      0.2507          0.6804E+06
   2721      1     30     15      0.2184          0.6804E+06
   2722      1     30     16      0.1913          0.6804E+06
   2723      1     30     17      0.1628          0.6804E+06
   2724      1     30     18      0.1394          0.6804E+06
   2725      1     30     19      0.1259          0.6804E+06
   2726      1     30     20      0.1165          0.6804E+06
   2727      1     30     21      0.1105          0.6804E+06
   2728      1     30     22      0.1066          0.6804E+06
   2729      1     30     23      0.1026          0.6804E+06
   2730      1     30     24      0.9869E-01      0.6804E+06
   2731      1     30     25      0.9259E-01      0.6804E+06
   2732      1     30     26      0.8508E-01      0.6804E+06
   2733      1     30     27      0.7842E-01      0.6804E+06
   2734      1     30     28      0.6991E-01      0.6804E+06
   2735      1     30     29      0.5887E-01      0.6804E+06
   2736      1     30     30      0.4643E-01      0.6804E+06
   2737      1     30     31      0.2974E-01      0.6804E+06
   2738      1     30     32      0.5549E-02      0.6804E+06
   2739      1     30     33     -0.8317E-01      0.6804E+06
   2740      1     30     60     -0.1572          0.6804E+06
   2741      1     30     61     -0.1861          0.6804E+06
   2742      1     30     62     -0.1805          0.6804E+06
   2743      1     30     63     -0.1792          0.6804E+06
   2744      1     30     64     -0.1654          0.6804E+06
   2745      1     30     65     -0.1576          0.6804E+06
   2746      1     30     66     -0.1482          0.6804E+06
   2747      1     30     67     -0.1200          0.6804E+06
   2748      1     30     68     -0.1172          0.6804E+06
   2749      1     30     69     -0.1047          0.6804E+06
   2750      1     30     70     -0.8185E-01      0.6804E+06
   2751      1     30     71     -0.6986E-01      0.6804E+06
   2752      1     30     72     -0.6020E-01      0.6804E+06
   2753      1     30     73     -0.5015E-01      0.6804E+06
   2754      1     30     74       0.000          0.6804E+06
   2755      1     30     75       0.000          0.6804E+06
   2756      1     30     76       0.000          0.6804E+06
   2757      1     30     77       0.000          0.6804E+06
   2758      1     30     78       0.000          0.6804E+06
   2759      1     30     79       0.000          0.6804E+06
   2760      1     30     80       0.000          0.6804E+06
   2761      1     30     81       0.000          0.6804E+06
   2762      1     30     82      0.9039E-02      0.6804E+06
   2763      1     30     83      0.2266E-01      0.6804E+06
   2764      1     30     84      0.3518E-01      0.6804E+06
   2765      1     30     85      0.4412E-01      0.6804E+06
   2766      1     30     86      0.5162E-01      0.6804E+06
   2767      1     30     87      0.5758E-01      0.6804E+06
   2768      1     30     88      0.6165E-01      0.6804E+06
   2769      1     30     89      0.6516E-01      0.6804E+06
   2770      1     30     90      0.6738E-01      0.6804E+06
   2771      1     30     91      0.6840E-01      0.6804E+06
   2772      1     30     92      0.6858E-01      0.6804E+06
   2773      1     30     93      0.6810E-01      0.6804E+06
   2774      1     30     94      0.6714E-01      0.6804E+06
   2775      1     30     95      0.6598E-01      0.6804E+06
   2776      1     30     96      0.6482E-01      0.6804E+06
   2777      1     30     97      0.6374E-01      0.6804E+06
   2778      1     30     98      0.6330E-01      0.6804E+06
   2779      1     30     99      0.6322E-01      0.6804E+06
   2780      1     30    100      0.6326E-01      0.6804E+06
   2781      1     31      1      0.5747          0.6804E+06
   2782      1     31      2      0.5586          0.6804E+06
   2783      1     31      3      0.5430          0.6804E+06
   2784      1     31      4      0.5236          0.6804E+06
   2785      1     31      5      0.5029          0.6804E+06
   2786      1     31      6      0.4835          0.6804E+06
   2787      1     31      7      0.4593          0.6804E+06
   2788      1     31      8      0.4317          0.6804E+06
   2789      1     31      9      0.4053          0.6804E+06
   2790      1     31     10      0.3730          0.6804E+06
   2791      1     31     11      0.3432          0.6804E+06
   2792      1     31     12      0.3081          0.6804E+06
   2793      1     31     13      0.2735          0.6804E+06
   2794      1     31     14      0.2447          0.6804E+06
   2795      1     31     15      0.2117          0.6804E+06
   2796      1     31     16      0.1840          0.6804E+06
   2797      1     31     17      0.1552          0.6804E+06
   2798      1     31     18      0.1327          0.6804E+06
   2799      1     31     19      0.1212          0.6804E+06
   2800      1     31     20      0.1142          0.6804E+06
   2801      1     31     21      0.1107          0.6804E+06
   2802      1     31     22      0.1090          0.6804E+06
   2803      1     31     23      0.1072          0.6804E+06
   2804      1     31     24      0.1047          0.6804E+06
   2805      1     31     25      0.1002          0.6804E+06
   2806      1     31     26      0.9431E-01      0.6804E+06
   2807      1     31     27      0.8889E-01      0.6804E+06
   2808      1     31     28      0.8146E-01      0.6804E+06
   2809      1     31     29      0.7090E-01      0.6804E+06
   2810      1     31     30      0.5776E-01      0.6804E+06
   2811      1     31     31      0.3528E-01      0.6804E+06
   2812      1     31     32      0.6134E-02      0.6804E+06
   2813      1     31     33     -0.9723E-01      0.6804E+06
   2814      1     31     60     -0.1393          0.6804E+06
   2815      1     31     61     -0.1466          0.6804E+06
   2816      1     31     62     -0.1492          0.6804E+06
   2817      1     31     63     -0.1516          0.6804E+06
   2818      1     31     64     -0.1403          0.6804E+06
   2819      1     31     65     -0.1504          0.6804E+06
   2820      1     31     66     -0.1346          0.6804E+06
   2821      1     31     67     -0.9755E-01      0.6804E+06
   2822      1     31     68     -0.9511E-01      0.6804E+06
   2823      1     31     69     -0.8620E-01      0.6804E+06
   2824      1     31     70     -0.6211E-01      0.6804E+06
   2825      1     31     71     -0.5246E-01      0.6804E+06
   2826      1     31     72       0.000          0.6804E+06
   2827      1     31     73       0.000          0.6804E+06
   2828      1     31     74       0.000          0.6804E+06
   2829      1     31     75       0.000          0.6804E+06
   2830      1     31     76       0.000          0.6804E+06
   2831      1     31     77       0.000          0.6804E+06
   2832      1     31     78       0.000          0.6804E+06
   2833      1     31     79       0.000          0.6804E+06
   2834      1     31     80       0.000          0.6804E+06
   2835      1     31     81       0.000          0.6804E+06
   2836      1     31     82      0.1615E-01      0.6804E+06
   2837      1     31     83      0.2860E-01      0.6804E+06
   2838      1     31     84      0.4041E-01      0.6804E+06
   2839      1     31     85      0.4886E-01      0.6804E+06
   2840      1     31     86      0.5607E-01      0.6804E+06
   2841      1     31     87      0.6131E-01      0.6804E+06
   2842      1     31     88      0.6460E-01      0.6804E+06
   2843      1     31     89      0.6714E-01      0.6804E+06
   2844      1     31     90      0.6860E-01      0.6804E+06
   2845      1     31     91      0.6926E-01      0.6804E+06
   2846      1     31     92      0.6919E-01      0.6804E+06
   2847      1     31     93      0.6858E-01      0.6804E+06
   2848      1     31     94      0.6752E-01      0.6804E+06
   2849      1     31     95      0.6632E-01      0.6804E+06
   2850      1     31     96      0.6513E-01      0.6804E+06
   2851      1     31     97      0.6410E-01      0.6804E+06
   2852      1     31     98      0.6385E-01      0.6804E+06
   2853      1     31     99      0.6373E-01      0.6804E+06
   2854      1     31    100      0.6355E-01      0.6804E+06
   2855      1     32      1      0.5779          0.6804E+06
   2856      1     32      2      0.5603          0.6804E+06
   2857      1     32      3      0.5432          0.6804E+06
   2858      1     32      4      0.5223          0.6804E+06
   2859      1     32      5      0.4998          0.6804E+06
   2860      1     32      6      0.4791          0.6804E+06
   2861      1     32      7      0.4540          0.6804E+06
   2862      1     32      8      0.4267          0.6804E+06
   2863      1     32      9      0.4011          0.6804E+06
   2864      1     32     10      0.3698          0.6804E+06
   2865      1     32     11      0.3407          0.6804E+06
   2866      1     32     12      0.3063          0.6804E+06
   2867      1     32     13      0.2716          0.6804E+06
   2868      1     32     14      0.2416          0.6804E+06
   2869      1     32     15      0.2072          0.6804E+06
   2870      1     32     16      0.1779          0.6804E+06
   2871      1     32     17      0.1474          0.6804E+06
   2872      1     32     18      0.1244          0.6804E+06
   2873      1     32     19      0.1160          0.6804E+06
   2874      1     32     20      0.1127          0.6804E+06
   2875      1     32     21      0.1123          0.6804E+06
   2876      1     32     22      0.1126          0.6804E+06
   2877      1     32     23      0.1128          0.6804E+06
   2878      1     32     24      0.1111          0.6804E+06
   2879      1     32     25      0.1078          0.6804E+06
   2880      1     32     26      0.1035          0.6804E+06
   2881      1     32     27      0.9883E-01      0.6804E+06
   2882      1     32     28      0.9183E-01      0.6804E+06
   2883      1     32     29      0.8132E-01      0.6804E+06
   2884      1     32     30      0.6722E-01      0.6804E+06
   2885      1     32     31      0.4008E-01      0.6804E+06
   2886      1     32     32      0.5005E-02      0.6804E+06
   2887      1     32     59     -0.1228          0.6804E+06
   2888      1     32     60     -0.1187          0.6804E+06
   2889      1     32     61     -0.1189          0.6804E+06
   2890      1     32     62     -0.1090          0.6804E+06
   2891      1     32     63     -0.1122          0.6804E+06
   2892      1     32     64     -0.1184          0.6804E+06
   2893      1     32     65     -0.1213          0.6804E+06
   2894      1     32     66     -0.1004          0.6804E+06
   2895      1     32     67     -0.8122E-01      0.6804E+06
   2896      1     32     68     -0.6775E-01      0.6804E+06
   2897      1     32     69     -0.5838E-01      0.6804E+06
   2898      1     32     70       0.000          0.6804E+06
   2899      1     32     71       0.000          0.6804E+06
   2900      1     32     72       0.000          0.6804E+06
   2901      1     32     73       0.000          0.6804E+06
   2902      1     32     74       0.000          0.6804E+06
   2903      1     32     75       0.000          0.6804E+06
   2904      1     32     76       0.000          0.6804E+06
   2905      1     32     77       0.000          0.6804E+06
   2906      1     32     78       0.000          0.6804E+06
   2907      1     32     79       0.000          0.6804E+06
   2908      1     32     80       0.000          0.6804E+06
   2909      1     32     81       0.000          0.6804E+06
   2910      1     32     82      0.1953E-01      0.6804E+06
   2911      1     32     83      0.3269E-01      0.6804E+06
   2912      1     32     84      0.4489E-01      0.6804E+06
   2913      1     32     85      0.5309E-01      0.6804E+06
   2914      1     32     86      0.5995E-01      0.6804E+06
   2915      1     32     87      0.6416E-01      0.6804E+06
   2916      1     32     88      0.6654E-01      0.6804E+06
   2917      1     32     89      0.6828E-01      0.6804E+06
   2918      1     32     90      0.6913E-01      0.6804E+06
   2919      1     32     91      0.6949E-01      0.6804E+06
   2920      1     32     92      0.6939E-01      0.6804E+06
   2921      1     32     93      0.6886E-01      0.6804E+06
   2922      1     32     94      0.6782E-01      0.6804E+06
   2923      1     32     95      0.6661E-01      0.6804E+06
   2924      1     32     96      0.6550E-01      0.6804E+06
   2925      1     32     97      0.6456E-01      0.6804E+06
   2926      1     32     98      0.6433E-01      0.6804E+06
   2927      1     32     99      0.6422E-01      0.6804E+06
   2928      1     32    100      0.6391E-01      0.6804E+06
   2929      1     33      1      0.5810          0.6804E+06
   2930      1     33      2      0.5620          0.6804E+06
   2931      1     33      3      0.5437          0.6804E+06
   2932      1     33      4      0.5213          0.6804E+06
   2933      1     33      5      0.4973          0.6804E+06
   2934      1     33      6      0.4755          0.6804E+06
   2935      1     33      7      0.4501          0.6804E+06
   2936      1     33      8      0.4234          0.6804E+06
   2937      1     33      9      0.3986          0.6804E+06
   2938      1     33     10      0.3684          0.6804E+06
   2939      1     33     11      0.3403          0.6804E+06
   2940      1     33     12      0.3068          0.6804E+06
   2941      1     33     13      0.2724          0.6804E+06
   2942      1     33     14      0.2419          0.6804E+06
   2943      1     33     15      0.2067          0.6804E+06
   2944      1     33     16      0.1764          0.6804E+06
   2945      1     33     17      0.1449          0.6804E+06
   2946      1     33     18      0.1216          0.6804E+06
   2947      1     33     19      0.1147          0.6804E+06
   2948      1     33     20      0.1135          0.6804E+06
   2949      1     33     21      0.1152          0.6804E+06
   2950      1     33     22      0.1171          0.6804E+06
   2951      1     33     23      0.1176          0.6804E+06
   2952      1     33     24      0.1164          0.6804E+06
   2953      1     33     25      0.1139          0.6804E+06
   2954      1     33     26      0.1104          0.6804E+06
   2955      1     33     27      0.1059          0.6804E+06
   2956      1     33     28      0.9817E-01      0.6804E+06
   2957      1     33     29      0.8677E-01      0.6804E+06
   2958      1     33     30      0.7194E-01      0.6804E+06
   2959      1     33     31      0.4361E-01      0.6804E+06
   2960      1     33     32      0.9645E-02      0.6804E+06
   2961      1     33     59     -0.1126          0.6804E+06
   2962      1     33     60     -0.1104          0.6804E+06
   2963      1     33     61     -0.1023          0.6804E+06
   2964      1     33     62     -0.8346E-01      0.6804E+06
   2965      1     33     63     -0.8191E-01      0.6804E+06
   2966      1     33     64     -0.8904E-01      0.6804E+06
   2967      1     33     65     -0.9325E-01      0.6804E+06
   2968      1     33     66     -0.8452E-01      0.6804E+06
   2969      1     33     67     -0.6535E-01      0.6804E+06
   2970      1     33     68       0.000          0.6804E+06
   2971      1     33     69       0.000          0.6804E+06
   2972      1     33     70       0.000          0.6804E+06
   2973      1     33     71       0.000          0.6804E+06
   2974      1     33     72       0.000          0.6804E+06
   2975      1     33     73       0.000          0.6804E+06
   2976      1     33     74       0.000          0.6804E+06
   2977      1     33     75       0.000          0.6804E+06
   2978      1     33     76       0.000          0.6804E+06
   2979      1     33     77       0.000          0.6804E+06
   2980      1     33     78       0.000          0.6804E+06
   2981      1     33     79       0.000          0.6804E+06
   2982      1     33     80       0.000          0.6804E+06
   2983      1     33     81      0.5161E-02      0.6804E+06
   2984      1     33     82      0.2407E-01      0.6804E+06
   2985      1     33     83      0.3661E-01      0.6804E+06
   2986      1     33     84      0.4812E-01      0.6804E+06
   2987      1     33     85      0.5586E-01      0.6804E+06
   2988      1     33     86      0.6210E-01      0.6804E+06
   2989      1     33     87      0.6533E-01      0.6804E+06
   2990      1     33     88      0.6699E-01      0.6804E+06
   2991      1     33     89      0.6828E-01      0.6804E+06
   2992      1     33     90      0.6901E-01      0.6804E+06
   2993      1     33     91      0.6930E-01      0.6804E+06
   2994      1     33     92      0.6924E-01      0.6804E+06
   2995      1     33     93      0.6885E-01      0.6804E+06
   2996      1     33     94      0.6800E-01      0.6804E+06
   2997      1     33     95      0.6681E-01      0.6804E+06
   2998      1     33     96      0.6583E-01      0.6804E+06
   2999      1     33     97      0.6498E-01      0.6804E+06
   3000      1     33     98      0.6456E-01      0.6804E+06
   3001      1     33     99      0.6449E-01      0.6804E+06
   3002      1     33    100      0.6419E-01      0.6804E+06
   3003      1     34      1      0.5850          0.6804E+06
   3004      1     34      2      0.5644          0.6804E+06
   3005      1     34      3      0.5447          0.6804E+06
   3006      1     34      4      0.5207          0.6804E+06
   3007      1     34      5      0.4952          0.6804E+06
   3008      1     34      6      0.4723          0.6804E+06
   3009      1     34      7      0.4469          0.6804E+06
   3010      1     34      8      0.4209          0.6804E+06
   3011      1     34      9      0.3972          0.6804E+06
   3012      1     34     10      0.3685          0.6804E+06
   3013      1     34     11      0.3417          0.6804E+06
   3014      1     34     12      0.3096          0.6804E+06
   3015      1     34     13      0.2758          0.6804E+06
   3016      1     34     14      0.2450          0.6804E+06
   3017      1     34     15      0.2093          0.6804E+06
   3018      1     34     16      0.1789          0.6804E+06
   3019      1     34     17      0.1476          0.6804E+06
   3020      1     34     18      0.1252          0.6804E+06
   3021      1     34     19      0.1181          0.6804E+06
   3022      1     34     20      0.1171          0.6804E+06
   3023      1     34     21      0.1198          0.6804E+06
   3024      1     34     22      0.1228          0.6804E+06
   3025      1     34     23      0.1239          0.6804E+06
   3026      1     34     24      0.1226          0.6804E+06
   3027      1     34     25      0.1193          0.6804E+06
   3028      1     34     26      0.1146          0.6804E+06
   3029      1     34     27      0.1096          0.6804E+06
   3030      1     34     28      0.1010          0.6804E+06
   3031      1     34     29      0.8853E-01      0.6804E+06
   3032      1     34     30      0.7289E-01      0.6804E+06
   3033      1     34     31      0.4527E-01      0.6804E+06
   3034      1     34     32      0.1356E-01      0.6804E+06
   3035      1     34     58     -0.9494E-01      0.6804E+06
   3036      1     34     59     -0.9613E-01      0.6804E+06
   3037      1     34     60     -0.8755E-01      0.6804E+06
   3038      1     34     61     -0.7797E-01      0.6804E+06
   3039      1     34     62     -0.6027E-01      0.6804E+06
   3040      1     34     63     -0.5935E-01      0.6804E+06
   3041      1     34     64     -0.5738E-01      0.6804E+06
   3042      1     34     65     -0.5644E-01      0.6804E+06
   3043      1     34     66       0.000          0.6804E+06
   3044      1     34     67       0.000          0.6804E+06
   3045      1     34     68       0.000          0.6804E+06
   3046      1     34     69       0.000          0.6804E+06
   3047      1     34     70       0.000          0.6804E+06
   3048      1     34     71       0.000          0.6804E+06
   3049      1     34     72       0.000          0.6804E+06
   3050      1     34     73       0.000          0.6804E+06
   3051      1     34     74       0.000          0.6804E+06
   3052      1     34     75       0.000          0.6804E+06
   3053      1     34     76       0.000          0.6804E+06
   3054      1     34     77       0.000          0.6804E+06
   3055      1     34     78       0.000          0.6804E+06
   3056      1     34     79       0.000          0.6804E+06
   3057      1     34     80       0.000          0.6804E+06
   3058      1     34     81      0.1513E-01      0.6804E+06
   3059      1     34     82      0.2989E-01      0.6804E+06
   3060      1     34     83      0.4100E-01      0.6804E+06
   3061      1     34     84      0.5127E-01      0.6804E+06
   3062      1     34     85      0.5804E-01      0.6804E+06
   3063      1     34     86      0.6300E-01      0.6804E+06
   3064      1     34     87      0.6518E-01      0.6804E+06
   3065      1     34     88      0.6624E-01      0.6804E+06
   3066      1     34     89      0.6742E-01      0.6804E+06
   3067      1     34     90      0.6844E-01      0.6804E+06
   3068      1     34     91      0.6885E-01      0.6804E+06
   3069      1     34     92      0.6879E-01      0.6804E+06
   3070      1     34     93      0.6841E-01      0.6804E+06
   3071      1     34     94      0.6779E-01      0.6804E+06
   3072      1     34     95      0.6675E-01      0.6804E+06
   3073      1     34     96      0.6586E-01      0.6804E+06
   3074      1     34     97      0.6507E-01      0.6804E+06
   3075      1     34     98      0.6465E-01      0.6804E+06
   3076      1     34     99      0.6448E-01      0.6804E+06
   3077      1     34    100      0.6432E-01      0.6804E+06
   3078      1     35      1      0.5898          0.6804E+06
   3079      1     35      2      0.5675          0.6804E+06
   3080      1     35      3      0.5464          0.6804E+06
   3081      1     35      4      0.5210          0.6804E+06
   3082      1     35      5      0.4946          0.6804E+06
   3083      1     35      6      0.4713          0.6804E+06
   3084      1     35      7      0.4457          0.6804E+06
   3085      1     35      8      0.4202          0.6804E+06
   3086      1     35      9      0.3974          0.6804E+06
   3087      1     35     10      0.3702          0.6804E+06
   3088      1     35     11      0.3452          0.6804E+06
   3089      1     35     12      0.3147          0.6804E+06
   3090      1     35     13      0.2817          0.6804E+06
   3091      1     35     14      0.2509          0.6804E+06
   3092      1     35     15      0.2151          0.6804E+06
   3093      1     35     16      0.1847          0.6804E+06
   3094      1     35     17      0.1539          0.6804E+06
   3095      1     35     18      0.1323          0.6804E+06
   3096      1     35     19      0.1239          0.6804E+06
   3097      1     35     20      0.1219          0.6804E+06
   3098      1     35     21      0.1245          0.6804E+06
   3099      1     35     22      0.1281          0.6804E+06
   3100      1     35     23      0.1294          0.6804E+06
   3101      1     35     24      0.1270          0.6804E+06
   3102      1     35     25      0.1216          0.6804E+06
   3103      1     35     26      0.1152          0.6804E+06
   3104      1     35     27      0.1093          0.6804E+06
   3105      1     35     28      0.9887E-01      0.6804E+06
   3106      1     35     29      0.8436E-01      0.6804E+06
   3107      1     35     30      0.6686E-01      0.6804E+06
   3108      1     35     31      0.3778E-01      0.6804E+06
   3109      1     35     58     -0.7246E-01      0.6804E+06
   3110      1     35     59     -0.7209E-01      0.6804E+06
   3111      1     35     60     -0.6612E-01      0.6804E+06
   3112      1     35     61     -0.6193E-01      0.6804E+06
   3113      1     35     62     -0.5152E-01      0.6804E+06
   3114      1     35     63     -0.5240E-01      0.6804E+06
   3115      1     35     64       0.000          0.6804E+06
   3116      1     35     65       0.000          0.6804E+06
   3117      1     35     66       0.000          0.6804E+06
   3118      1     35     67       0.000          0.6804E+06
   3119      1     35     68       0.000          0.6804E+06
   3120      1     35     69       0.000          0.6804E+06
   3121      1     35     70       0.000          0.6804E+06
   3122      1     35     71       0.000          0.6804E+06
   3123      1     35     72       0.000          0.6804E+06
   3124      1     35     73       0.000          0.6804E+06
   3125      1     35     74       0.000          0.6804E+06
   3126      1     35     75       0.000          0.6804E+06
   3127      1     35     76       0.000          0.6804E+06
   3128      1     35     77       0.000          0.6804E+06
   3129      1     35     78       0.000          0.6804E+06
   3130      1     35     79       0.000          0.6804E+06
   3131      1     35     80      0.2748E-02      0.6804E+06
   3132      1     35     81      0.2048E-01      0.6804E+06
   3133      1     35     82      0.3463E-01      0.6804E+06
   3134      1     35     83      0.4484E-01      0.6804E+06
   3135      1     35     84      0.5406E-01      0.6804E+06
   3136      1     35     85      0.5989E-01      0.6804E+06
   3137      1     35     86      0.6347E-01      0.6804E+06
   3138      1     35     87      0.6468E-01      0.6804E+06
   3139      1     35     88      0.6529E-01      0.6804E+06
   3140      1     35     89      0.6646E-01      0.6804E+06
   3141      1     35     90      0.6766E-01      0.6804E+06
   3142      1     35     91      0.6808E-01      0.6804E+06
   3143      1     35     92      0.6808E-01      0.6804E+06
   3144      1     35     93      0.6782E-01      0.6804E+06
   3145      1     35     94      0.6721E-01      0.6804E+06
   3146      1     35     95      0.6632E-01      0.6804E+06
   3147      1     35     96      0.6559E-01      0.6804E+06
   3148      1     35     97      0.6492E-01      0.6804E+06
   3149      1     35     98      0.6446E-01      0.6804E+06
   3150      1     35     99      0.6425E-01      0.6804E+06
   3151      1     35    100      0.6413E-01      0.6804E+06
   3152      1     36      1      0.5945          0.6804E+06
   3153      1     36      2      0.5707          0.6804E+06
   3154      1     36      3      0.5485          0.6804E+06
   3155      1     36      4      0.5221          0.6804E+06
   3156      1     36      5      0.4951          0.6804E+06
   3157      1     36      6      0.4717          0.6804E+06
   3158      1     36      7      0.4458          0.6804E+06
   3159      1     36      8      0.4205          0.6804E+06
   3160      1     36      9      0.3983          0.6804E+06
   3161      1     36     10      0.3725          0.6804E+06
   3162      1     36     11      0.3492          0.6804E+06
   3163      1     36     12      0.3208          0.6804E+06
   3164      1     36     13      0.2890          0.6804E+06
   3165      1     36     14      0.2581          0.6804E+06
   3166      1     36     15      0.2218          0.6804E+06
   3167      1     36     16      0.1908          0.6804E+06
   3168      1     36     17      0.1589          0.6804E+06
   3169      1     36     18      0.1364          0.6804E+06
   3170      1     36     19      0.1278          0.6804E+06
   3171      1     36     20      0.1253          0.6804E+06
   3172      1     36     21      0.1273          0.6804E+06
   3173      1     36     22      0.1305          0.6804E+06
   3174      1     36     23      0.1314          0.6804E+06
   3175      1     36     24      0.1276          0.6804E+06
   3176      1     36     25      0.1201          0.6804E+06
   3177      1     36     26      0.1124          0.6804E+06
   3178      1     36     27      0.1054          0.6804E+06
   3179      1     36     28      0.9293E-01      0.6804E+06
   3180      1     36     29      0.7565E-01      0.6804E+06
   3181      1     36     30      0.5505E-01      0.6804E+06
   3182      1     36     31      0.2168E-01      0.6804E+06
   3183      1     36     58     -0.5577E-01      0.6804E+06
   3184      1     36     59     -0.5434E-01      0.6804E+06
   3185      1     36     60     -0.5409E-01      0.6804E+06
   3186      1     36     61     -0.5361E-01      0.6804E+06
   3187      1     36     62       0.000          0.6804E+06
   3188      1     36     63       0.000          0.6804E+06
   3189      1     36     64       0.000          0.6804E+06
   3190      1     36     65       0.000          0.6804E+06
   3191      1     36     66       0.000          0.6804E+06
   3192      1     36     67       0.000          0.6804E+06
   3193      1     36     68       0.000          0.6804E+06
   3194      1     36     69       0.000          0.6804E+06
   3195      1     36     70       0.000          0.6804E+06
   3196      1     36     71       0.000          0.6804E+06
   3197      1     36     72       0.000          0.6804E+06
   3198      1     36     73       0.000          0.6804E+06
   3199      1     36     74       0.000          0.6804E+06
   3200      1     36     75       0.000          0.6804E+06
   3201      1     36     76       0.000          0.6804E+06
   3202      1     36     77       0.000          0.6804E+06
   3203      1     36     78       0.000          0.6804E+06
   3204      1     36     79       0.000          0.6804E+06
   3205      1     36     80      0.1034E-01      0.6804E+06
   3206      1     36     81      0.2546E-01      0.6804E+06
   3207      1     36     82      0.3828E-01      0.6804E+06
   3208      1     36     83      0.4767E-01      0.6804E+06
   3209      1     36     84      0.5630E-01      0.6804E+06
   3210      1     36     85      0.6163E-01      0.6804E+06
   3211      1     36     86      0.6422E-01      0.6804E+06
   3212      1     36     87      0.6472E-01      0.6804E+06
   3213      1     36     88      0.6492E-01      0.6804E+06
   3214      1     36     89      0.6586E-01      0.6804E+06
   3215      1     36     90      0.6691E-01      0.6804E+06
   3216      1     36     91      0.6726E-01      0.6804E+06
   3217      1     36     92      0.6731E-01      0.6804E+06
   3218      1     36     93      0.6720E-01      0.6804E+06
   3219      1     36     94      0.6656E-01      0.6804E+06
   3220      1     36     95      0.6579E-01      0.6804E+06
   3221      1     36     96      0.6518E-01      0.6804E+06
   3222      1     36     97      0.6460E-01      0.6804E+06
   3223      1     36     98      0.6422E-01      0.6804E+06
   3224      1     36     99      0.6396E-01      0.6804E+06
   3225      1     36    100      0.6380E-01      0.6804E+06
   3226      1     37      1      0.6002          0.6804E+06
   3227      1     37      2      0.5746          0.6804E+06
   3228      1     37      3      0.5510          0.6804E+06
   3229      1     37      4      0.5234          0.6804E+06
   3230      1     37      5      0.4958          0.6804E+06
   3231      1     37      6      0.4722          0.6804E+06
   3232      1     37      7      0.4461          0.6804E+06
   3233      1     37      8      0.4209          0.6804E+06
   3234      1     37      9      0.3993          0.6804E+06
   3235      1     37     10      0.3749          0.6804E+06
   3236      1     37     11      0.3536          0.6804E+06
   3237      1     37     12      0.3282          0.6804E+06
   3238      1     37     13      0.2989          0.6804E+06
   3239      1     37     14      0.2670          0.6804E+06
   3240      1     37     15      0.2302          0.6804E+06
   3241      1     37     16      0.1990          0.6804E+06
   3242      1     37     17      0.1670          0.6804E+06
   3243      1     37     18      0.1434          0.6804E+06
   3244      1     37     19      0.1327          0.6804E+06
   3245      1     37     20      0.1274          0.6804E+06
   3246      1     37     21      0.1264          0.6804E+06
   3247      1     37     22      0.1275          0.6804E+06
   3248      1     37     23      0.1263          0.6804E+06
   3249      1     37     24      0.1215          0.6804E+06
   3250      1     37     25      0.1131          0.6804E+06
   3251      1     37     26      0.1041          0.6804E+06
   3252      1     37     27      0.9534E-01      0.6804E+06
   3253      1     37     28      0.8062E-01      0.6804E+06
   3254      1     37     29      0.5971E-01      0.6804E+06
   3255      1     37     30      0.3618E-01      0.6804E+06
   3256      1     37     58     -0.5410E-01      0.6804E+06
   3257      1     37     59     -0.5313E-01      0.6804E+06
   3258      1     37     60     -0.5294E-01      0.6804E+06
   3259      1     37     61     -0.5339E-01      0.6804E+06
   3260      1     37     62       0.000          0.6804E+06
   3261      1     37     63       0.000          0.6804E+06
   3262      1     37     64       0.000          0.6804E+06
   3263      1     37     65       0.000          0.6804E+06
   3264      1     37     66       0.000          0.6804E+06
   3265      1     37     67       0.000          0.6804E+06
   3266      1     37     68       0.000          0.6804E+06
   3267      1     37     69       0.000          0.6804E+06
   3268      1     37     70       0.000          0.6804E+06
   3269      1     37     71       0.000          0.6804E+06
   3270      1     37     72       0.000          0.6804E+06
   3271      1     37     73       0.000          0.6804E+06
   3272      1     37     74       0.000          0.6804E+06
   3273      1     37     75       0.000          0.6804E+06
   3274      1     37     76       0.000          0.6804E+06
   3275      1     37     77       0.000          0.6804E+06
   3276      1     37     78       0.000          0.6804E+06
   3277      1     37     79      0.3399E-03      0.6804E+06
   3278      1     37     80      0.1354E-01      0.6804E+06
   3279      1     37     81      0.2884E-01      0.6804E+06
   3280      1     37     82      0.4122E-01      0.6804E+06
   3281      1     37     83      0.5037E-01      0.6804E+06
   3282      1     37     84      0.5852E-01      0.6804E+06
   3283      1     37     85      0.6299E-01      0.6804E+06
   3284      1     37     86      0.6497E-01      0.6804E+06
   3285      1     37     87      0.6523E-01      0.6804E+06
   3286      1     37     88      0.6514E-01      0.6804E+06
   3287      1     37     89      0.6546E-01      0.6804E+06
   3288      1     37     90      0.6608E-01      0.6804E+06
   3289      1     37     91      0.6635E-01      0.6804E+06
   3290      1     37     92      0.6645E-01      0.6804E+06
   3291      1     37     93      0.6641E-01      0.6804E+06
   3292      1     37     94      0.6582E-01      0.6804E+06
   3293      1     37     95      0.6519E-01      0.6804E+06
   3294      1     37     96      0.6463E-01      0.6804E+06
   3295      1     37     97      0.6406E-01      0.6804E+06
   3296      1     37     98      0.6387E-01      0.6804E+06
   3297      1     37     99      0.6359E-01      0.6804E+06
   3298      1     37    100      0.6340E-01      0.6804E+06
   3299      1     38      1      0.6058          0.6804E+06
   3300      1     38      2      0.5783          0.6804E+06
   3301      1     38      3      0.5533          0.6804E+06
   3302      1     38      4      0.5242          0.6804E+06
   3303      1     38      5      0.4957          0.6804E+06
   3304      1     38      6      0.4716          0.6804E+06
   3305      1     38      7      0.4454          0.6804E+06
   3306      1     38      8      0.4204          0.6804E+06
   3307      1     38      9      0.3995          0.6804E+06
   3308      1     38     10      0.3761          0.6804E+06
   3309      1     38     11      0.3561          0.6804E+06
   3310      1     38     12      0.3322          0.6804E+06
   3311      1     38     13      0.3046          0.6804E+06
   3312      1     38     14      0.2735          0.6804E+06
   3313      1     38     15      0.2376          0.6804E+06
   3314      1     38     16      0.2076          0.6804E+06
   3315      1     38     17      0.1767          0.6804E+06
   3316      1     38     18      0.1523          0.6804E+06
   3317      1     38     19      0.1376          0.6804E+06
   3318      1     38     20      0.1266          0.6804E+06
   3319      1     38     21      0.1211          0.6804E+06
   3320      1     38     22      0.1204          0.6804E+06
   3321      1     38     23      0.1171          0.6804E+06
   3322      1     38     24      0.1110          0.6804E+06
   3323      1     38     25      0.1016          0.6804E+06
   3324      1     38     26      0.9116E-01      0.6804E+06
   3325      1     38     27      0.8044E-01      0.6804E+06
   3326      1     38     28      0.6291E-01      0.6804E+06
   3327      1     38     29      0.3824E-01      0.6804E+06
   3328      1     38     58     -0.5216E-01      0.6804E+06
   3329      1     38     59     -0.5327E-01      0.6804E+06
   3330      1     38     60     -0.5256E-01      0.6804E+06
   3331      1     38     61     -0.5299E-01      0.6804E+06
   3332      1     38     62       0.000          0.6804E+06
   3333      1     38     63       0.000          0.6804E+06
   3334      1     38     64       0.000          0.6804E+06
   3335      1     38     65       0.000          0.6804E+06
   3336      1     38     66       0.000          0.6804E+06
   3337      1     38     67       0.000          0.6804E+06
   3338      1     38     68       0.000          0.6804E+06
   3339      1     38     69       0.000          0.6804E+06
   3340      1     38     70       0.000          0.6804E+06
   3341      1     38     71       0.000          0.6804E+06
   3342      1     38     72       0.000          0.6804E+06
   3343      1     38     73       0.000          0.6804E+06
   3344      1     38     74       0.000          0.6804E+06
   3345      1     38     75       0.000          0.6804E+06
   3346      1     38     76       0.000          0.6804E+06
   3347      1     38     77       0.000          0.6804E+06
   3348      1     38     78       0.000          0.6804E+06
   3349      1     38     79      0.2886E-02      0.6804E+06
   3350      1     38     80      0.1388E-01      0.6804E+06
   3351      1     38     81      0.2917E-01      0.6804E+06
   3352      1     38     82      0.4258E-01      0.6804E+06
   3353      1     38     83      0.5246E-01      0.6804E+06
   3354      1     38     84      0.6075E-01      0.6804E+06
   3355      1     38     85      0.6428E-01      0.6804E+06
   3356      1     38     86      0.6550E-01      0.6804E+06
   3357      1     38     87      0.6531E-01      0.6804E+06
   3358      1     38     88      0.6494E-01      0.6804E+06
   3359      1     38     89      0.6507E-01      0.6804E+06
   3360      1     38     90      0.6544E-01      0.6804E+06
   3361      1     38     91      0.6572E-01      0.6804E+06
   3362      1     38     92      0.6587E-01      0.6804E+06
   3363      1     38     93      0.6578E-01      0.6804E+06
   3364      1     38     94      0.6534E-01      0.6804E+06
   3365      1     38     95      0.6474E-01      0.6804E+06
   3366      1     38     96      0.6417E-01      0.6804E+06
   3367      1     38     97      0.6358E-01      0.6804E+06
   3368      1     38     98      0.6338E-01      0.6804E+06
   3369      1     38     99      0.6326E-01      0.6804E+06
   3370      1     38    100      0.6322E-01      0.6804E+06
   3371      1     39      1      0.6106          0.6804E+06
   3372      1     39      2      0.5812          0.6804E+06
   3373      1     39      3      0.5546          0.6804E+06
   3374      1     39      4      0.5241          0.6804E+06
   3375      1     39      5      0.4944          0.6804E+06
   3376      1     39      6      0.4698          0.6804E+06
   3377      1     39      7      0.4435          0.6804E+06
   3378      1     39      8      0.4189          0.6804E+06
   3379      1     39      9      0.3984          0.6804E+06
   3380      1     39     10      0.3756          0.6804E+06
   3381      1     39     11      0.3558          0.6804E+06
   3382      1     39     12      0.3318          0.6804E+06
   3383      1     39     13      0.3043          0.6804E+06
   3384      1     39     14      0.2759          0.6804E+06
   3385      1     39     15      0.2425          0.6804E+06
   3386      1     39     16      0.2142          0.6804E+06
   3387      1     39     17      0.1847          0.6804E+06
   3388      1     39     18      0.1597          0.6804E+06
   3389      1     39     19      0.1401          0.6804E+06
   3390      1     39     20      0.1221          0.6804E+06
   3391      1     39     21      0.1107          0.6804E+06
   3392      1     39     22      0.1073          0.6804E+06
   3393      1     39     23      0.1032          0.6804E+06
   3394      1     39     24      0.9753E-01      0.6804E+06
   3395      1     39     25      0.8892E-01      0.6804E+06
   3396      1     39     26      0.7796E-01      0.6804E+06
   3397      1     39     27      0.6500E-01      0.6804E+06
   3398      1     39     28      0.4355E-01      0.6804E+06
   3399      1     39     29      0.1509E-01      0.6804E+06
   3400      1     39     58     -0.5574E-01      0.6804E+06
   3401      1     39     59     -0.5255E-01      0.6804E+06
   3402      1     39     60     -0.5170E-01      0.6804E+06
   3403      1     39     61     -0.5034E-01      0.6804E+06
   3404      1     39     62       0.000          0.6804E+06
   3405      1     39     63       0.000          0.6804E+06
   3406      1     39     64       0.000          0.6804E+06
   3407      1     39     65       0.000          0.6804E+06
   3408      1     39     66       0.000          0.6804E+06
   3409      1     39     67       0.000          0.6804E+06
   3410      1     39     68       0.000          0.6804E+06
   3411      1     39     69       0.000          0.6804E+06
   3412      1     39     70       0.000          0.6804E+06
   3413      1     39     71       0.000          0.6804E+06
   3414      1     39     72       0.000          0.6804E+06
   3415      1     39     73       0.000          0.6804E+06
   3416      1     39     74       0.000          0.6804E+06
   3417      1     39     75       0.000          0.6804E+06
   3418      1     39     76       0.000          0.6804E+06
   3419      1     39     77       0.000          0.6804E+06
   3420      1     39     78       0.000          0.6804E+06
   3421      1     39     79       0.000          0.6804E+06
   3422      1     39     80      0.1066E-01      0.6804E+06
   3423      1     39     81      0.2790E-01      0.6804E+06
   3424      1     39     82      0.4297E-01      0.6804E+06
   3425      1     39     83      0.5376E-01      0.6804E+06
   3426      1     39     84      0.6223E-01      0.6804E+06
   3427      1     39     85      0.6521E-01      0.6804E+06
   3428      1     39     86      0.6591E-01      0.6804E+06
   3429      1     39     87      0.6528E-01      0.6804E+06
   3430      1     39     88      0.6462E-01      0.6804E+06
   3431      1     39     89      0.6478E-01      0.6804E+06
   3432      1     39     90      0.6514E-01      0.6804E+06
   3433      1     39     91      0.6542E-01      0.6804E+06
   3434      1     39     92      0.6554E-01      0.6804E+06
   3435      1     39     93      0.6535E-01      0.6804E+06
   3436      1     39     94      0.6482E-01      0.6804E+06
   3437      1     39     95      0.6430E-01      0.6804E+06
   3438      1     39     96      0.6387E-01      0.6804E+06
   3439      1     39     97      0.6341E-01      0.6804E+06
   3440      1     39     98      0.6321E-01      0.6804E+06
   3441      1     39     99      0.6311E-01      0.6804E+06
   3442      1     39    100      0.6326E-01      0.6804E+06
   3443      1     40      1      0.6157          0.6804E+06
   3444      1     40      2      0.5839          0.6804E+06
   3445      1     40      3      0.5554          0.6804E+06
   3446      1     40      4      0.5228          0.6804E+06
   3447      1     40      5      0.4915          0.6804E+06
   3448      1     40      6      0.4663          0.6804E+06
   3449      1     40      7      0.4399          0.6804E+06
   3450      1     40      8      0.4156          0.6804E+06
   3451      1     40      9      0.3957          0.6804E+06
   3452      1     40     10      0.3736          0.6804E+06
   3453      1     40     11      0.3539          0.6804E+06
   3454      1     40     12      0.3300          0.6804E+06
   3455      1     40     13      0.3033          0.6804E+06
   3456      1     40     14      0.2770          0.6804E+06
   3457      1     40     15      0.2458          0.6804E+06
   3458      1     40     16      0.2190          0.6804E+06
   3459      1     40     17      0.1901          0.6804E+06
   3460      1     40     18      0.1639          0.6804E+06
   3461      1     40     19      0.1386          0.6804E+06
   3462      1     40     20      0.1114          0.6804E+06
   3463      1     40     21      0.9120E-01      0.6804E+06
   3464      1     40     22      0.8318E-01      0.6804E+06
   3465      1     40     23      0.8053E-01      0.6804E+06
   3466      1     40     24      0.7854E-01      0.6804E+06
   3467      1     40     25      0.7347E-01      0.6804E+06
   3468      1     40     26      0.6318E-01      0.6804E+06
   3469      1     40     27      0.4816E-01      0.6804E+06
   3470      1     40     28      0.2003E-01      0.6804E+06
   3471      1     40     58     -0.5780E-01      0.6804E+06
   3472      1     40     59     -0.5226E-01      0.6804E+06
   3473      1     40     60     -0.4942E-01      0.6804E+06
   3474      1     40     61       0.000          0.6804E+06
   3475      1     40     62       0.000          0.6804E+06
   3476      1     40     63       0.000          0.6804E+06
   3477      1     40     64       0.000          0.6804E+06
   3478      1     40     65       0.000          0.6804E+06
   3479      1     40     66       0.000          0.6804E+06
   3480      1     40     67       0.000          0.6804E+06
   3481      1     40     68       0.000          0.6804E+06
   3482      1     40     69       0.000          0.6804E+06
   3483      1     40     70       0.000          0.6804E+06
   3484      1     40     71       0.000          0.6804E+06
   3485      1     40     72       0.000          0.6804E+06
   3486      1     40     73       0.000          0.6804E+06
   3487      1     40     74       0.000          0.6804E+06
   3488      1     40     75       0.000          0.6804E+06
   3489      1     40     76       0.000          0.6804E+06
   3490      1     40     77       0.000          0.6804E+06
   3491      1     40     78       0.000          0.6804E+06
   3492      1     40     79       0.000          0.6804E+06
   3493      1     40     80      0.4358E-02      0.6804E+06
   3494      1     40     81      0.2614E-01      0.6804E+06
   3495      1     40     82      0.4355E-01      0.6804E+06
   3496      1     40     83      0.5502E-01      0.6804E+06
   3497      1     40     84      0.6320E-01      0.6804E+06
   3498      1     40     85      0.6600E-01      0.6804E+06
   3499      1     40     86      0.6648E-01      0.6804E+06
   3500      1     40     87      0.6553E-01      0.6804E+06
   3501      1     40     88      0.6460E-01      0.6804E+06
   3502      1     40     89      0.6468E-01      0.6804E+06
   3503      1     40     90      0.6496E-01      0.6804E+06
   3504      1     40     91      0.6516E-01      0.6804E+06
   3505      1     40     92      0.6512E-01      0.6804E+06
   3506      1     40     93      0.6470E-01      0.6804E+06
   3507      1     40     94      0.6424E-01      0.6804E+06
   3508      1     40     95      0.6388E-01      0.6804E+06
   3509      1     40     96      0.6362E-01      0.6804E+06
   3510      1     40     97      0.6335E-01      0.6804E+06
   3511      1     40     98      0.6319E-01      0.6804E+06
   3512      1     40     99      0.6333E-01      0.6804E+06
   3513      1     40    100      0.6359E-01      0.6804E+06
   3514      1     41      1      0.6200          0.6804E+06
   3515      1     41      2      0.5856          0.6804E+06
   3516      1     41      3      0.5551          0.6804E+06
   3517      1     41      4      0.5206          0.6804E+06
   3518      1     41      5      0.4879          0.6804E+06
   3519      1     41      6      0.4620          0.6804E+06
   3520      1     41      7      0.4355          0.6804E+06
   3521      1     41      8      0.4116          0.6804E+06
   3522      1     41      9      0.3922          0.6804E+06
   3523      1     41     10      0.3708          0.6804E+06
   3524      1     41     11      0.3518          0.6804E+06
   3525      1     41     12      0.3287          0.6804E+06
   3526      1     41     13      0.3028          0.6804E+06
   3527      1     41     14      0.2775          0.6804E+06
   3528      1     41     15      0.2472          0.6804E+06
   3529      1     41     16      0.2205          0.6804E+06
   3530      1     41     17      0.1905          0.6804E+06
   3531      1     41     18      0.1605          0.6804E+06
   3532      1     41     19      0.1316          0.6804E+06
   3533      1     41     20      0.9813E-01      0.6804E+06
   3534      1     41     21      0.6926E-01      0.6804E+06
   3535      1     41     22      0.5697E-01      0.6804E+06
   3536      1     41     23      0.5786E-01      0.6804E+06
   3537      1     41     24      0.6167E-01      0.6804E+06
   3538      1     41     25      0.6155E-01      0.6804E+06
   3539      1     41     26      0.5299E-01      0.6804E+06
   3540      1     41     27      0.3764E-01      0.6804E+06
   3541      1     41     28      0.4033E-02      0.6804E+06
   3542      1     41     58     -0.5797E-01      0.6804E+06
   3543      1     41     59     -0.5117E-01      0.6804E+06
   3544      1     41     60     -0.4610E-01      0.6804E+06
   3545      1     41     61       0.000          0.6804E+06
   3546      1     41     62       0.000          0.6804E+06
   3547      1     41     63       0.000          0.6804E+06
   3548      1     41     64       0.000          0.6804E+06
   3549      1     41     65       0.000          0.6804E+06
   3550      1     41     66       0.000          0.6804E+06
   3551      1     41     67       0.000          0.6804E+06
   3552      1     41     68       0.000          0.6804E+06
   3553      1     41     69       0.000          0.6804E+06
   3554      1     41     70       0.000          0.6804E+06
   3555      1     41     71       0.000          0.6804E+06
   3556      1     41     72       0.000          0.6804E+06
   3557      1     41     73       0.000          0.6804E+06
   3558      1     41     74       0.000          0.6804E+06
   3559      1     41     75       0.000          0.6804E+06
   3560      1     41     76       0.000          0.6804E+06
   3561      1     41     77       0.000          0.6804E+06
   3562      1     41     78       0.000          0.6804E+06
   3563      1     41     79       0.000          0.6804E+06
   3564      1     41     80      0.2738E-02      0.6804E+06
   3565      1     41     81      0.2637E-01      0.6804E+06
   3566      1     41     82      0.4534E-01      0.6804E+06
   3567      1     41     83      0.5728E-01      0.6804E+06
   3568      1     41     84      0.6478E-01      0.6804E+06
   3569      1     41     85      0.6705E-01      0.6804E+06
   3570      1     41     86      0.6728E-01      0.6804E+06
   3571      1     41     87      0.6635E-01      0.6804E+06
   3572      1     41     88      0.6540E-01      0.6804E+06
   3573      1     41     89      0.6501E-01      0.6804E+06
   3574      1     41     90      0.6488E-01      0.6804E+06
   3575      1     41     91      0.6482E-01      0.6804E+06
   3576      1     41     92      0.6455E-01      0.6804E+06
   3577      1     41     93      0.6397E-01      0.6804E+06
   3578      1     41     94      0.6378E-01      0.6804E+06
   3579      1     41     95      0.6361E-01      0.6804E+06
   3580      1     41     96      0.6342E-01      0.6804E+06
   3581      1     41     97      0.6326E-01      0.6804E+06
   3582      1     41     98      0.6311E-01      0.6804E+06
   3583      1     41     99      0.6343E-01      0.6804E+06
   3584      1     41    100      0.6384E-01      0.6804E+06
   3585      1     42      1      0.6243          0.6804E+06
   3586      1     42      2      0.5865          0.6804E+06
   3587      1     42      3      0.5534          0.6804E+06
   3588      1     42      4      0.5165          0.6804E+06
   3589      1     42      5      0.4823          0.6804E+06
   3590      1     42      6      0.4559          0.6804E+06
   3591      1     42      7      0.4292          0.6804E+06
   3592      1     42      8      0.4057          0.6804E+06
   3593      1     42      9      0.3871          0.6804E+06
   3594      1     42     10      0.3668          0.6804E+06
   3595      1     42     11      0.3489          0.6804E+06
   3596      1     42     12      0.3272          0.6804E+06
   3597      1     42     13      0.3023          0.6804E+06
   3598      1     42     14      0.2777          0.6804E+06
   3599      1     42     15      0.2479          0.6804E+06
   3600      1     42     16      0.2211          0.6804E+06
   3601      1     42     17      0.1897          0.6804E+06
   3602      1     42     18      0.1567          0.6804E+06
   3603      1     42     19      0.1257          0.6804E+06
   3604      1     42     20      0.8865E-01      0.6804E+06
   3605      1     42     21      0.5453E-01      0.6804E+06
   3606      1     42     22      0.3974E-01      0.6804E+06
   3607      1     42     23      0.4285E-01      0.6804E+06
   3608      1     42     24      0.5119E-01      0.6804E+06
   3609      1     42     25      0.5542E-01      0.6804E+06
   3610      1     42     26      0.4942E-01      0.6804E+06
   3611      1     42     27      0.3605E-01      0.6804E+06
   3612      1     42     28      0.5509E-02      0.6804E+06
   3613      1     42     57     -0.6526E-01      0.6804E+06
   3614      1     42     58     -0.5522E-01      0.6804E+06
   3615      1     42     59     -0.5115E-01      0.6804E+06
   3616      1     42     60     -0.4406E-01      0.6804E+06
   3617      1     42     61       0.000          0.6804E+06
   3618      1     42     62       0.000          0.6804E+06
   3619      1     42     63       0.000          0.6804E+06
   3620      1     42     64       0.000          0.6804E+06
   3621      1     42     65       0.000          0.6804E+06
   3622      1     42     66       0.000          0.6804E+06
   3623      1     42     67       0.000          0.6804E+06
   3624      1     42     68       0.000          0.6804E+06
   3625      1     42     69       0.000          0.6804E+06
   3626      1     42     70       0.000          0.6804E+06
   3627      1     42     71       0.000          0.6804E+06
   3628      1     42     72       0.000          0.6804E+06
   3629      1     42     73       0.000          0.6804E+06
   3630      1     42     74       0.000          0.6804E+06
   3631      1     42     75       0.000          0.6804E+06
   3632      1     42     76       0.000          0.6804E+06
   3633      1     42     77       0.000          0.6804E+06
   3634      1     42     78       0.000          0.6804E+06
   3635      1     42     79       0.000          0.6804E+06
   3636      1     42     80      0.6835E-02      0.6804E+06
   3637      1     42     81      0.2985E-01      0.6804E+06
   3638      1     42     82      0.4835E-01      0.6804E+06
   3639      1     42     83      0.5979E-01      0.6804E+06
   3640      1     42     84      0.6652E-01      0.6804E+06
   3641      1     42     85      0.6833E-01      0.6804E+06
   3642      1     42     86      0.6828E-01      0.6804E+06
   3643      1     42     87      0.6724E-01      0.6804E+06
   3644      1     42     88      0.6615E-01      0.6804E+06
   3645      1     42     89      0.6532E-01      0.6804E+06
   3646      1     42     90      0.6490E-01      0.6804E+06
   3647      1     42     91      0.6444E-01      0.6804E+06
   3648      1     42     92      0.6375E-01      0.6804E+06
   3649      1     42     93      0.6347E-01      0.6804E+06
   3650      1     42     94      0.6335E-01      0.6804E+06
   3651      1     42     95      0.6322E-01      0.6804E+06
   3652      1     42     96      0.6309E-01      0.6804E+06
   3653      1     42     97      0.6294E-01      0.6804E+06
   3654      1     42     98      0.6281E-01      0.6804E+06
   3655      1     42     99      0.6319E-01      0.6804E+06
   3656      1     42    100      0.6388E-01      0.6804E+06
   3657      1     43      1      0.6271          0.6804E+06
   3658      1     43      2      0.5860          0.6804E+06
   3659      1     43      3      0.5499          0.6804E+06
   3660      1     43      4      0.5102          0.6804E+06
   3661      1     43      5      0.4744          0.6804E+06
   3662      1     43      6      0.4474          0.6804E+06
   3663      1     43      7      0.4211          0.6804E+06
   3664      1     43      8      0.3985          0.6804E+06
   3665      1     43      9      0.3810          0.6804E+06
   3666      1     43     10      0.3620          0.6804E+06
   3667      1     43     11      0.3454          0.6804E+06
   3668      1     43     12      0.3250          0.6804E+06
   3669      1     43     13      0.3014          0.6804E+06
   3670      1     43     14      0.2777          0.6804E+06
   3671      1     43     15      0.2486          0.6804E+06
   3672      1     43     16      0.2218          0.6804E+06
   3673      1     43     17      0.1899          0.6804E+06
   3674      1     43     18      0.1560          0.6804E+06
   3675      1     43     19      0.1248          0.6804E+06
   3676      1     43     20      0.8877E-01      0.6804E+06
   3677      1     43     21      0.5680E-01      0.6804E+06
   3678      1     43     22      0.4287E-01      0.6804E+06
   3679      1     43     23      0.4420E-01      0.6804E+06
   3680      1     43     24      0.5142E-01      0.6804E+06
   3681      1     43     25      0.5615E-01      0.6804E+06
   3682      1     43     26      0.5316E-01      0.6804E+06
   3683      1     43     58     -0.5469E-01      0.6804E+06
   3684      1     43     59     -0.5139E-01      0.6804E+06
   3685      1     43     60       0.000          0.6804E+06
   3686      1     43     61       0.000          0.6804E+06
   3687      1     43     62       0.000          0.6804E+06
   3688      1     43     63       0.000          0.6804E+06
   3689      1     43     64       0.000          0.6804E+06
   3690      1     43     65       0.000          0.6804E+06
   3691      1     43     66       0.000          0.6804E+06
   3692      1     43     67       0.000          0.6804E+06
   3693      1     43     68       0.000          0.6804E+06
   3694      1     43     69       0.000          0.6804E+06
   3695      1     43     70       0.000          0.6804E+06
   3696      1     43     71       0.000          0.6804E+06
   3697      1     43     72       0.000          0.6804E+06
   3698      1     43     73       0.000          0.6804E+06
   3699      1     43     74       0.000          0.6804E+06
   3700      1     43     75       0.000          0.6804E+06
   3701      1     43     76       0.000          0.6804E+06
   3702      1     43     77       0.000          0.6804E+06
   3703      1     43     78       0.000          0.6804E+06
   3704      1     43     79       0.000          0.6804E+06
   3705      1     43     80      0.1676E-01      0.6804E+06
   3706      1     43     81      0.3708E-01      0.6804E+06
   3707      1     43     82      0.5298E-01      0.6804E+06
   3708      1     43     83      0.6277E-01      0.6804E+06
   3709      1     43     84      0.6843E-01      0.6804E+06
   3710      1     43     85      0.6982E-01      0.6804E+06
   3711      1     43     86      0.6933E-01      0.6804E+06
   3712      1     43     87      0.6783E-01      0.6804E+06
   3713      1     43     88      0.6638E-01      0.6804E+06
   3714      1     43     89      0.6507E-01      0.6804E+06
   3715      1     43     90      0.6442E-01      0.6804E+06
   3716      1     43     91      0.6399E-01      0.6804E+06
   3717      1     43     92      0.6350E-01      0.6804E+06
   3718      1     43     93      0.6326E-01      0.6804E+06
   3719      1     43     94      0.6309E-01      0.6804E+06
   3720      1     43     95      0.6287E-01      0.6804E+06
   3721      1     43     96      0.6266E-01      0.6804E+06
   3722      1     43     97      0.6267E-01      0.6804E+06
   3723      1     43     98      0.6299E-01      0.6804E+06
   3724      1     43     99      0.6362E-01      0.6804E+06
   3725      1     43    100      0.6436E-01      0.6804E+06
   3726      1     44      1      0.6289          0.6804E+06
   3727      1     44      2      0.5845          0.6804E+06
   3728      1     44      3      0.5454          0.6804E+06
   3729      1     44      4      0.5026          0.6804E+06
   3730      1     44      5      0.4648          0.6804E+06
   3731      1     44      6      0.4376          0.6804E+06
   3732      1     44      7      0.4120          0.6804E+06
   3733      1     44      8      0.3909          0.6804E+06
   3734      1     44      9      0.3748          0.6804E+06
   3735      1     44     10      0.3574          0.6804E+06
   3736      1     44     11      0.3419          0.6804E+06
   3737      1     44     12      0.3227          0.6804E+06
   3738      1     44     13      0.3002          0.6804E+06
   3739      1     44     14      0.2776          0.6804E+06
   3740      1     44     15      0.2495          0.6804E+06
   3741      1     44     16      0.2232          0.6804E+06
   3742      1     44     17      0.1919          0.6804E+06
   3743      1     44     18      0.1586          0.6804E+06
   3744      1     44     19      0.1286          0.6804E+06
   3745      1     44     20      0.9548E-01      0.6804E+06
   3746      1     44     21      0.6861E-01      0.6804E+06
   3747      1     44     22      0.5639E-01      0.6804E+06
   3748      1     44     23      0.5424E-01      0.6804E+06
   3749      1     44     24      0.5758E-01      0.6804E+06
   3750      1     44     25      0.6075E-01      0.6804E+06
   3751      1     44     58     -0.5545E-01      0.6804E+06
   3752      1     44     59     -0.5118E-01      0.6804E+06
   3753      1     44     60       0.000          0.6804E+06
   3754      1     44     61       0.000          0.6804E+06
   3755      1     44     62       0.000          0.6804E+06
   3756      1     44     63       0.000          0.6804E+06
   3757      1     44     64       0.000          0.6804E+06
   3758      1     44     65       0.000          0.6804E+06
   3759      1     44     66       0.000          0.6804E+06
   3760      1     44     67       0.000          0.6804E+06
   3761      1     44     68       0.000          0.6804E+06
   3762      1     44     69       0.000          0.6804E+06
   3763      1     44     70       0.000          0.6804E+06
   3764      1     44     71       0.000          0.6804E+06
   3765      1     44     72       0.000          0.6804E+06
   3766      1     44     73       0.000          0.6804E+06
   3767      1     44     74       0.000          0.6804E+06
   3768      1     44     75       0.000          0.6804E+06
   3769      1     44     76       0.000          0.6804E+06
   3770      1     44     77       0.000          0.6804E+06
   3771      1     44     78       0.000          0.6804E+06
   3772      1     44     79      0.9758E-02      0.6804E+06
   3773      1     44     80      0.2919E-01      0.6804E+06
   3774      1     44     81      0.4648E-01      0.6804E+06
   3775      1     44     82      0.5915E-01      0.6804E+06
   3776      1     44     83      0.6663E-01      0.6804E+06
   3777      1     44     84      0.7079E-01      0.6804E+06
   3778      1     44     85      0.7158E-01      0.6804E+06
   3779      1     44     86      0.7042E-01      0.6804E+06
   3780      1     44     87      0.6816E-01      0.6804E+06
   3781      1     44     88      0.6618E-01      0.6804E+06
   3782      1     44     89      0.6466E-01      0.6804E+06
   3783      1     44     90      0.6404E-01      0.6804E+06
   3784      1     44     91      0.6382E-01      0.6804E+06
   3785      1     44     92      0.6360E-01      0.6804E+06
   3786      1     44     93      0.6335E-01      0.6804E+06
   3787      1     44     94      0.6301E-01      0.6804E+06
   3788      1     44     95      0.6268E-01      0.6804E+06
   3789      1     44     96      0.6252E-01      0.6804E+06
   3790      1     44     97      0.6256E-01      0.6804E+06
   3791      1     44     98      0.6314E-01      0.6804E+06
   3792      1     44     99      0.6399E-01      0.6804E+06
   3793      1     44    100      0.6485E-01      0.6804E+06
   3794      1     45      1      0.6309          0.6804E+06
   3795      1     45      2      0.5825          0.6804E+06
   3796      1     45      3      0.5394          0.6804E+06
   3797      1     45      4      0.4919          0.6804E+06
   3798      1     45      5      0.4508          0.6804E+06
   3799      1     45      6      0.4237          0.6804E+06
   3800      1     45      7      0.4003          0.6804E+06
   3801      1     45      8      0.3816          0.6804E+06
   3802      1     45      9      0.3674          0.6804E+06
   3803      1     45     10      0.3522          0.6804E+06
   3804      1     45     11      0.3385          0.6804E+06
   3805      1     45     12      0.3211          0.6804E+06
   3806      1     45     13      0.3000          0.6804E+06
   3807      1     45     14      0.2785          0.6804E+06
   3808      1     45     15      0.2514          0.6804E+06
   3809      1     45     16      0.2259          0.6804E+06
   3810      1     45     17      0.1956          0.6804E+06
   3811      1     45     18      0.1639          0.6804E+06
   3812      1     45     19      0.1352          0.6804E+06
   3813      1     45     20      0.1040          0.6804E+06
   3814      1     45     21      0.8058E-01      0.6804E+06
   3815      1     45     22      0.6985E-01      0.6804E+06
   3816      1     45     23      0.6611E-01      0.6804E+06
   3817      1     45     24      0.6714E-01      0.6804E+06
   3818      1     45     25      0.6874E-01      0.6804E+06
   3819      1     45     58     -0.5572E-01      0.6804E+06
   3820      1     45     59     -0.5058E-01      0.6804E+06
   3821      1     45     60       0.000          0.6804E+06
   3822      1     45     61       0.000          0.6804E+06
   3823      1     45     62       0.000          0.6804E+06
   3824      1     45     63       0.000          0.6804E+06
   3825      1     45     64       0.000          0.6804E+06
   3826      1     45     65       0.000          0.6804E+06
   3827      1     45     66       0.000          0.6804E+06
   3828      1     45     67       0.000          0.6804E+06
   3829      1     45     68       0.000          0.6804E+06
   3830      1     45     69       0.000          0.6804E+06
   3831      1     45     70       0.000          0.6804E+06
   3832      1     45     71       0.000          0.6804E+06
   3833      1     45     72       0.000          0.6804E+06
   3834      1     45     73       0.000          0.6804E+06
   3835      1     45     74       0.000          0.6804E+06
   3836      1     45     75       0.000          0.6804E+06
   3837      1     45     76       0.000          0.6804E+06
   3838      1     45     77       0.000          0.6804E+06
   3839      1     45     78      0.8691E-02      0.6804E+06
   3840      1     45     79      0.2846E-01      0.6804E+06
   3841      1     45     80      0.4638E-01      0.6804E+06
   3842      1     45     81      0.6039E-01      0.6804E+06
   3843      1     45     82      0.6919E-01      0.6804E+06
   3844      1     45     83      0.7359E-01      0.6804E+06
   3845      1     45     84      0.7522E-01      0.6804E+06
   3846      1     45     85      0.7465E-01      0.6804E+06
   3847      1     45     86      0.7222E-01      0.6804E+06
   3848      1     45     87      0.6868E-01      0.6804E+06
   3849      1     45     88      0.6579E-01      0.6804E+06
   3850      1     45     89      0.6454E-01      0.6804E+06
   3851      1     45     90      0.6439E-01      0.6804E+06
   3852      1     45     91      0.6441E-01      0.6804E+06
   3853      1     45     92      0.6419E-01      0.6804E+06
   3854      1     45     93      0.6374E-01      0.6804E+06
   3855      1     45     94      0.6307E-01      0.6804E+06
   3856      1     45     95      0.6265E-01      0.6804E+06
   3857      1     45     96      0.6259E-01      0.6804E+06
   3858      1     45     97      0.6267E-01      0.6804E+06
   3859      1     45     98      0.6335E-01      0.6804E+06
   3860      1     45     99      0.6438E-01      0.6804E+06
   3861      1     45    100      0.6549E-01      0.6804E+06
   3862      1     46      1      0.6333          0.6804E+06
   3863      1     46      2      0.5811          0.6804E+06
   3864      1     46      3      0.5343          0.6804E+06
   3865      1     46      4      0.4823          0.6804E+06
   3866      1     46      5      0.4381          0.6804E+06
   3867      1     46      6      0.4111          0.6804E+06
   3868      1     46      7      0.3899          0.6804E+06
   3869      1     46      8      0.3733          0.6804E+06
   3870      1     46      9      0.3609          0.6804E+06
   3871      1     46     10      0.3478          0.6804E+06
   3872      1     46     11      0.3360          0.6804E+06
   3873      1     46     12      0.3208          0.6804E+06
   3874      1     46     13      0.3008          0.6804E+06
   3875      1     46     14      0.2799          0.6804E+06
   3876      1     46     15      0.2535          0.6804E+06
   3877      1     46     16      0.2288          0.6804E+06
   3878      1     46     17      0.1991          0.6804E+06
   3879      1     46     18      0.1679          0.6804E+06
   3880      1     46     19      0.1400          0.6804E+06
   3881      1     46     20      0.1101          0.6804E+06
   3882      1     46     21      0.8840E-01      0.6804E+06
   3883      1     46     22      0.7844E-01      0.6804E+06
   3884      1     46     23      0.7441E-01      0.6804E+06
   3885      1     46     24      0.7467E-01      0.6804E+06
   3886      1     46     58     -0.5501E-01      0.6804E+06
   3887      1     46     59     -0.5001E-01      0.6804E+06
   3888      1     46     60       0.000          0.6804E+06
   3889      1     46     61       0.000          0.6804E+06
   3890      1     46     62       0.000          0.6804E+06
   3891      1     46     63       0.000          0.6804E+06
   3892      1     46     64       0.000          0.6804E+06
   3893      1     46     65       0.000          0.6804E+06
   3894      1     46     66       0.000          0.6804E+06
   3895      1     46     67       0.000          0.6804E+06
   3896      1     46     68       0.000          0.6804E+06
   3897      1     46     69       0.000          0.6804E+06
   3898      1     46     70       0.000          0.6804E+06
   3899      1     46     71       0.000          0.6804E+06
   3900      1     46     72       0.000          0.6804E+06
   3901      1     46     73       0.000          0.6804E+06
   3902      1     46     74       0.000          0.6804E+06
   3903      1     46     75       0.000          0.6804E+06
   3904      1     46     76       0.000          0.6804E+06
   3905      1     46     77      0.7908E-02      0.6804E+06
   3906      1     46     78      0.2555E-01      0.6804E+06
   3907      1     46     79      0.4599E-01      0.6804E+06
   3908      1     46     80      0.6374E-01      0.6804E+06
   3909      1     46     81      0.7417E-01      0.6804E+06
   3910      1     46     82      0.7869E-01      0.6804E+06
   3911      1     46     83      0.8019E-01      0.6804E+06
   3912      1     46     84      0.7972E-01      0.6804E+06
   3913      1     46     85      0.7811E-01      0.6804E+06
   3914      1     46     86      0.7472E-01      0.6804E+06
   3915      1     46     87      0.7008E-01      0.6804E+06
   3916      1     46     88      0.6631E-01      0.6804E+06
   3917      1     46     89      0.6561E-01      0.6804E+06
   3918      1     46     90      0.6593E-01      0.6804E+06
   3919      1     46     91      0.6608E-01      0.6804E+06
   3920      1     46     92      0.6569E-01      0.6804E+06
   3921      1     46     93      0.6435E-01      0.6804E+06
   3922      1     46     94      0.6333E-01      0.6804E+06
   3923      1     46     95      0.6289E-01      0.6804E+06
   3924      1     46     96      0.6277E-01      0.6804E+06
   3925      1     46     97      0.6300E-01      0.6804E+06
   3926      1     46     98      0.6365E-01      0.6804E+06
   3927      1     46     99      0.6472E-01      0.6804E+06
   3928      1     46    100      0.6612E-01      0.6804E+06
   3929      1     47      1      0.6372          0.6804E+06
   3930      1     47      2      0.5806          0.6804E+06
   3931      1     47      3      0.5303          0.6804E+06
   3932      1     47      4      0.4750          0.6804E+06
   3933      1     47      5      0.4283          0.6804E+06
   3934      1     47      6      0.4004          0.6804E+06
   3935      1     47      7      0.3800          0.6804E+06
   3936      1     47      8      0.3647          0.6804E+06
   3937      1     47      9      0.3538          0.6804E+06
   3938      1     47     10      0.3428          0.6804E+06
   3939      1     47     11      0.3333          0.6804E+06
   3940      1     47     12      0.3206          0.6804E+06
   3941      1     47     13      0.3020          0.6804E+06
   3942      1     47     14      0.2818          0.6804E+06
   3943      1     47     15      0.2562          0.6804E+06
   3944      1     47     16      0.2323          0.6804E+06
   3945      1     47     17      0.2032          0.6804E+06
   3946      1     47     18      0.1722          0.6804E+06
   3947      1     47     19      0.1443          0.6804E+06
   3948      1     47     20      0.1142          0.6804E+06
   3949      1     47     21      0.9314E-01      0.6804E+06
   3950      1     47     22      0.8448E-01      0.6804E+06
   3951      1     47     23      0.8120E-01      0.6804E+06
   3952      1     47     24      0.8104E-01      0.6804E+06
   3953      1     47     58     -0.5369E-01      0.6804E+06
   3954      1     47     59     -0.5154E-01      0.6804E+06
   3955      1     47     60       0.000          0.6804E+06
   3956      1     47     61       0.000          0.6804E+06
   3957      1     47     62       0.000          0.6804E+06
   3958      1     47     63       0.000          0.6804E+06
   3959      1     47     64       0.000          0.6804E+06
   3960      1     47     65       0.000          0.6804E+06
   3961      1     47     66       0.000          0.6804E+06
   3962      1     47     67       0.000          0.6804E+06
   3963      1     47     68       0.000          0.6804E+06
   3964      1     47     69       0.000          0.6804E+06
   3965      1     47     70       0.000          0.6804E+06
   3966      1     47     71       0.000          0.6804E+06
   3967      1     47     72       0.000          0.6804E+06
   3968      1     47     73       0.000          0.6804E+06
   3969      1     47     74       0.000          0.6804E+06
   3970      1     47     75       0.000          0.6804E+06
   3971      1     47     76       0.000          0.6804E+06
   3972      1     47     77      0.1581E-01      0.6804E+06
   3973      1     47     78      0.4050E-01      0.6804E+06
   3974      1     47     79      0.6354E-01      0.6804E+06
   3975      1     47     80      0.8014E-01      0.6804E+06
   3976      1     47     81      0.8707E-01      0.6804E+06
   3977      1     47     82      0.8779E-01      0.6804E+06
   3978      1     47     83      0.8671E-01      0.6804E+06
   3979      1     47     84      0.8422E-01      0.6804E+06
   3980      1     47     85      0.8200E-01      0.6804E+06
   3981      1     47     86      0.7849E-01      0.6804E+06
   3982      1     47     87      0.7391E-01      0.6804E+06
   3983      1     47     88      0.7041E-01      0.6804E+06
   3984      1     47     89      0.6935E-01      0.6804E+06
   3985      1     47     90      0.6884E-01      0.6804E+06
   3986      1     47     91      0.6821E-01      0.6804E+06
   3987      1     47     92      0.6723E-01      0.6804E+06
   3988      1     47     93      0.6591E-01      0.6804E+06
   3989      1     47     94      0.6462E-01      0.6804E+06
   3990      1     47     95      0.6372E-01      0.6804E+06
   3991      1     47     96      0.6328E-01      0.6804E+06
   3992      1     47     97      0.6335E-01      0.6804E+06
   3993      1     47     98      0.6391E-01      0.6804E+06
   3994      1     47     99      0.6510E-01      0.6804E+06
   3995      1     47    100      0.6690E-01      0.6804E+06
   3996      1     48      1      0.6411          0.6804E+06
   3997      1     48      2      0.5810          0.6804E+06
   3998      1     48      3      0.5283          0.6804E+06
   3999      1     48      4      0.4719          0.6804E+06
   4000      1     48      5      0.4251          0.6804E+06
   4001      1     48      6      0.3953          0.6804E+06
   4002      1     48      7      0.3723          0.6804E+06
   4003      1     48      8      0.3567          0.6804E+06
   4004      1     48      9      0.3469          0.6804E+06
   4005      1     48     10      0.3377          0.6804E+06
   4006      1     48     11      0.3297          0.6804E+06
   4007      1     48     12      0.3184          0.6804E+06
   4008      1     48     13      0.3018          0.6804E+06
   4009      1     48     14      0.2831          0.6804E+06
   4010      1     48     15      0.2587          0.6804E+06
   4011      1     48     16      0.2356          0.6804E+06
   4012      1     48     17      0.2078          0.6804E+06
   4013      1     48     18      0.1774          0.6804E+06
   4014      1     48     19      0.1486          0.6804E+06
   4015      1     48     20      0.1161          0.6804E+06
   4016      1     48     21      0.9436E-01      0.6804E+06
   4017      1     48     22      0.8738E-01      0.6804E+06
   4018      1     48     23      0.8581E-01      0.6804E+06
   4019      1     48     24      0.8545E-01      0.6804E+06
   4020      1     48     58     -0.4684E-01      0.6804E+06
   4021      1     48     59     -0.4970E-01      0.6804E+06
   4022      1     48     60       0.000          0.6804E+06
   4023      1     48     61       0.000          0.6804E+06
   4024      1     48     62       0.000          0.6804E+06
   4025      1     48     63       0.000          0.6804E+06
   4026      1     48     64       0.000          0.6804E+06
   4027      1     48     65       0.000          0.6804E+06
   4028      1     48     66       0.000          0.6804E+06
   4029      1     48     67       0.000          0.6804E+06
   4030      1     48     68       0.000          0.6804E+06
   4031      1     48     69       0.000          0.6804E+06
   4032      1     48     70       0.000          0.6804E+06
   4033      1     48     71       0.000          0.6804E+06
   4034      1     48     72       0.000          0.6804E+06
   4035      1     48     73       0.000          0.6804E+06
   4036      1     48     74       0.000          0.6804E+06
   4037      1     48     75       0.000          0.6804E+06
   4038      1     48     76       0.000          0.6804E+06
   4039      1     48     77      0.2057E-01      0.6804E+06
   4040      1     48     78      0.5094E-01      0.6804E+06
   4041      1     48     79      0.7419E-01      0.6804E+06
   4042      1     48     80      0.8650E-01      0.6804E+06
   4043      1     48     81      0.9218E-01      0.6804E+06
   4044      1     48     82      0.9262E-01      0.6804E+06
   4045      1     48     83      0.9068E-01      0.6804E+06
   4046      1     48     84      0.8726E-01      0.6804E+06
   4047      1     48     85      0.8525E-01      0.6804E+06
   4048      1     48     86      0.8264E-01      0.6804E+06
   4049      1     48     87      0.7914E-01      0.6804E+06
   4050      1     48     88      0.7656E-01      0.6804E+06
   4051      1     48     89      0.7440E-01      0.6804E+06
   4052      1     48     90      0.7256E-01      0.6804E+06
   4053      1     48     91      0.7109E-01      0.6804E+06
   4054      1     48     92      0.6944E-01      0.6804E+06
   4055      1     48     93      0.6789E-01      0.6804E+06
   4056      1     48     94      0.6611E-01      0.6804E+06
   4057      1     48     95      0.6456E-01      0.6804E+06
   4058      1     48     96      0.6361E-01      0.6804E+06
   4059      1     48     97      0.6340E-01      0.6804E+06
   4060      1     48     98      0.6396E-01      0.6804E+06
   4061      1     48     99      0.6543E-01      0.6804E+06
   4062      1     48    100      0.6775E-01      0.6804E+06
   4063      1     49      1      0.6445          0.6804E+06
   4064      1     49      2      0.5812          0.6804E+06
   4065      1     49      3      0.5260          0.6804E+06
   4066      1     49      4      0.4680          0.6804E+06
   4067      1     49      5      0.4202          0.6804E+06
   4068      1     49      6      0.3889          0.6804E+06
   4069      1     49      7      0.3645          0.6804E+06
   4070      1     49      8      0.3492          0.6804E+06
   4071      1     49      9      0.3404          0.6804E+06
   4072      1     49     10      0.3328          0.6804E+06
   4073      1     49     11      0.3263          0.6804E+06
   4074      1     49     12      0.3166          0.6804E+06
   4075      1     49     13      0.3015          0.6804E+06
   4076      1     49     14      0.2841          0.6804E+06
   4077      1     49     15      0.2606          0.6804E+06
   4078      1     49     16      0.2384          0.6804E+06
   4079      1     49     17      0.2125          0.6804E+06
   4080      1     49     18      0.1836          0.6804E+06
   4081      1     49     19      0.1544          0.6804E+06
   4082      1     49     20      0.1186          0.6804E+06
   4083      1     49     21      0.9563E-01      0.6804E+06
   4084      1     49     22      0.8942E-01      0.6804E+06
   4085      1     49     23      0.8890E-01      0.6804E+06
   4086      1     49     24      0.8791E-01      0.6804E+06
   4087      1     49     58     -0.3985E-01      0.6804E+06
   4088      1     49     59     -0.4826E-01      0.6804E+06
   4089      1     49     60       0.000          0.6804E+06
   4090      1     49     61       0.000          0.6804E+06
   4091      1     49     62       0.000          0.6804E+06
   4092      1     49     63       0.000          0.6804E+06
   4093      1     49     64       0.000          0.6804E+06
   4094      1     49     65       0.000          0.6804E+06
   4095      1     49     66       0.000          0.6804E+06
   4096      1     49     67       0.000          0.6804E+06
   4097      1     49     68       0.000          0.6804E+06
   4098      1     49     69       0.000          0.6804E+06
   4099      1     49     70       0.000          0.6804E+06
   4100      1     49     71       0.000          0.6804E+06
   4101      1     49     72       0.000          0.6804E+06
   4102      1     49     73       0.000          0.6804E+06
   4103      1     49     74       0.000          0.6804E+06
   4104      1     49     75       0.000          0.6804E+06
   4105      1     49     76       0.000          0.6804E+06
   4106      1     49     77      0.2617E-01      0.6804E+06
   4107      1     49     78      0.5977E-01      0.6804E+06
   4108      1     49     79      0.8224E-01      0.6804E+06
   4109      1     49     80      0.9056E-01      0.6804E+06
   4110      1     49     81      0.9371E-01      0.6804E+06
   4111      1     49     82      0.9331E-01      0.6804E+06
   4112      1     49     83      0.9132E-01      0.6804E+06
   4113      1     49     84      0.8868E-01      0.6804E+06
   4114      1     49     85      0.8744E-01      0.6804E+06
   4115      1     49     86      0.8587E-01      0.6804E+06
   4116      1     49     87      0.8338E-01      0.6804E+06
   4117      1     49     88      0.8144E-01      0.6804E+06
   4118      1     49     89      0.7867E-01      0.6804E+06
   4119      1     49     90      0.7617E-01      0.6804E+06
   4120      1     49     91      0.7440E-01      0.6804E+06
   4121      1     49     92      0.7222E-01      0.6804E+06
   4122      1     49     93      0.7004E-01      0.6804E+06
   4123      1     49     94      0.6758E-01      0.6804E+06
   4124      1     49     95      0.6541E-01      0.6804E+06
   4125      1     49     96      0.6392E-01      0.6804E+06
   4126      1     49     97      0.6339E-01      0.6804E+06
   4127      1     49     98      0.6404E-01      0.6804E+06
   4128      1     49     99      0.6595E-01      0.6804E+06
   4129      1     49    100      0.6881E-01      0.6804E+06
   4130      1     50      1      0.6484          0.6804E+06
   4131      1     50      2      0.5806          0.6804E+06
   4132      1     50      3      0.5216          0.6804E+06
   4133      1     50      4      0.4600          0.6804E+06
   4134      1     50      5      0.4096          0.6804E+06
   4135      1     50      6      0.3771          0.6804E+06
   4136      1     50      7      0.3532          0.6804E+06
   4137      1     50      8      0.3393          0.6804E+06
   4138      1     50      9      0.3323          0.6804E+06
   4139      1     50     10      0.3270          0.6804E+06
   4140      1     50     11      0.3229          0.6804E+06
   4141      1     50     12      0.3159          0.6804E+06
   4142      1     50     13      0.3022          0.6804E+06
   4143      1     50     14      0.2850          0.6804E+06
   4144      1     50     15      0.2614          0.6804E+06
   4145      1     50     16      0.2395          0.6804E+06
   4146      1     50     17      0.2147          0.6804E+06
   4147      1     50     18      0.1879          0.6804E+06
   4148      1     50     19      0.1614          0.6804E+06
   4149      1     50     20      0.1288          0.6804E+06
   4150      1     50     21      0.1070          0.6804E+06
   4151      1     50     22      0.9810E-01      0.6804E+06
   4152      1     50     23      0.9303E-01      0.6804E+06
   4153      1     50     24      0.8803E-01      0.6804E+06
   4154      1     50     25      0.7495E-01      0.6804E+06
   4155      1     50     58     -0.3243E-01      0.6804E+06
   4156      1     50     59       0.000          0.6804E+06
   4157      1     50     60       0.000          0.6804E+06
   4158      1     50     61       0.000          0.6804E+06
   4159      1     50     62       0.000          0.6804E+06
   4160      1     50     63       0.000          0.6804E+06
   4161      1     50     64       0.000          0.6804E+06
   4162      1     50     65       0.000          0.6804E+06
   4163      1     50     66       0.000          0.6804E+06
   4164      1     50     67       0.000          0.6804E+06
   4165      1     50     68       0.000          0.6804E+06
   4166      1     50     69       0.000          0.6804E+06
   4167      1     50     70       0.000          0.6804E+06
   4168      1     50     71       0.000          0.6804E+06
   4169      1     50     72       0.000          0.6804E+06
   4170      1     50     73       0.000          0.6804E+06
   4171      1     50     74       0.000          0.6804E+06
   4172      1     50     75       0.000          0.6804E+06
   4173      1     50     76       0.000          0.6804E+06
   4174      1     50     77      0.2622E-01      0.6804E+06
   4175      1     50     78      0.6102E-01      0.6804E+06
   4176      1     50     79      0.8206E-01      0.6804E+06
   4177      1     50     80      0.8855E-01      0.6804E+06
   4178      1     50     81      0.9105E-01      0.6804E+06
   4179      1     50     82      0.9102E-01      0.6804E+06
   4180      1     50     83      0.8983E-01      0.6804E+06
   4181      1     50     84      0.8921E-01      0.6804E+06
   4182      1     50     85      0.8859E-01      0.6804E+06
   4183      1     50     86      0.8761E-01      0.6804E+06
   4184      1     50     87      0.8664E-01      0.6804E+06
   4185      1     50     88      0.8608E-01      0.6804E+06
   4186      1     50     89      0.8334E-01      0.6804E+06
   4187      1     50     90      0.8048E-01      0.6804E+06
   4188      1     50     91      0.7860E-01      0.6804E+06
   4189      1     50     92      0.7598E-01      0.6804E+06
   4190      1     50     93      0.7338E-01      0.6804E+06
   4191      1     50     94      0.7021E-01      0.6804E+06
   4192      1     50     95      0.6711E-01      0.6804E+06
   4193      1     50     96      0.6480E-01      0.6804E+06
   4194      1     50     97      0.6365E-01      0.6804E+06
   4195      1     50     98      0.6446E-01      0.6804E+06
   4196      1     50     99      0.6716E-01      0.6804E+06
   4197      1     50    100      0.7078E-01      0.6804E+06
   4198      1     51      1      0.6524          0.6804E+06
   4199      1     51      2      0.5785          0.6804E+06
   4200      1     51      3      0.5145          0.6804E+06
   4201      1     51      4      0.4479          0.6804E+06
   4202      1     51      5      0.3935          0.6804E+06
   4203      1     51      6      0.3598          0.6804E+06
   4204      1     51      7      0.3389          0.6804E+06
   4205      1     51      8      0.3280          0.6804E+06
   4206      1     51      9      0.3233          0.6804E+06
   4207      1     51     10      0.3208          0.6804E+06
   4208      1     51     11      0.3194          0.6804E+06
   4209      1     51     12      0.3158          0.6804E+06
   4210      1     51     13      0.3028          0.6804E+06
   4211      1     51     14      0.2848          0.6804E+06
   4212      1     51     15      0.2597          0.6804E+06
   4213      1     51     16      0.2374          0.6804E+06
   4214      1     51     17      0.2126          0.6804E+06
   4215      1     51     18      0.1872          0.6804E+06
   4216      1     51     19      0.1642          0.6804E+06
   4217      1     51     20      0.1377          0.6804E+06
   4218      1     51     21      0.1180          0.6804E+06
   4219      1     51     22      0.1067          0.6804E+06
   4220      1     51     23      0.9668E-01      0.6804E+06
   4221      1     51     24      0.8690E-01      0.6804E+06
   4222      1     51     25      0.6720E-01      0.6804E+06
   4223      1     51     59       0.000          0.6804E+06
   4224      1     51     60       0.000          0.6804E+06
   4225      1     51     61       0.000          0.6804E+06
   4226      1     51     62       0.000          0.6804E+06
   4227      1     51     63       0.000          0.6804E+06
   4228      1     51     64       0.000          0.6804E+06
   4229      1     51     65       0.000          0.6804E+06
   4230      1     51     66       0.000          0.6804E+06
   4231      1     51     67       0.000          0.6804E+06
   4232      1     51     68       0.000          0.6804E+06
   4233      1     51     69       0.000          0.6804E+06
   4234      1     51     70       0.000          0.6804E+06
   4235      1     51     71       0.000          0.6804E+06
   4236      1     51     72       0.000          0.6804E+06
   4237      1     51     73       0.000          0.6804E+06
   4238      1     51     74       0.000          0.6804E+06
   4239      1     51     75       0.000          0.6804E+06
   4240      1     51     76       0.000          0.6804E+06
   4241      1     51     77      0.1992E-01      0.6804E+06
   4242      1     51     78      0.5330E-01      0.6804E+06
   4243      1     51     79      0.7253E-01      0.6804E+06
   4244      1     51     80      0.7934E-01      0.6804E+06
   4245      1     51     81      0.8335E-01      0.6804E+06
   4246      1     51     82      0.8528E-01      0.6804E+06
   4247      1     51     83      0.8566E-01      0.6804E+06
   4248      1     51     84      0.8673E-01      0.6804E+06
   4249      1     51     85      0.8706E-01      0.6804E+06
   4250      1     51     86      0.8713E-01      0.6804E+06
   4251      1     51     87      0.8749E-01      0.6804E+06
   4252      1     51     88      0.8754E-01      0.6804E+06
   4253      1     51     89      0.8595E-01      0.6804E+06
   4254      1     51     90      0.8414E-01      0.6804E+06
   4255      1     51     91      0.8279E-01      0.6804E+06
   4256      1     51     92      0.8023E-01      0.6804E+06
   4257      1     51     93      0.7771E-01      0.6804E+06
   4258      1     51     94      0.7434E-01      0.6804E+06
   4259      1     51     95      0.7050E-01      0.6804E+06
   4260      1     51     96      0.6706E-01      0.6804E+06
   4261      1     51     97      0.6477E-01      0.6804E+06
   4262      1     51     98      0.6573E-01      0.6804E+06
   4263      1     51     99      0.6979E-01      0.6804E+06
   4264      1     51    100      0.7431E-01      0.6804E+06
   4265      1     52      1      0.6540          0.6804E+06
   4266      1     52      2      0.5751          0.6804E+06
   4267      1     52      3      0.5075          0.6804E+06
   4268      1     52      4      0.4366          0.6804E+06
   4269      1     52      5      0.3773          0.6804E+06
   4270      1     52      6      0.3424          0.6804E+06
   4271      1     52      7      0.3261          0.6804E+06
   4272      1     52      8      0.3179          0.6804E+06
   4273      1     52      9      0.3149          0.6804E+06
   4274      1     52     10      0.3143          0.6804E+06
   4275      1     52     11      0.3148          0.6804E+06
   4276      1     52     12      0.3137          0.6804E+06
   4277      1     52     13      0.3010          0.6804E+06
   4278      1     52     14      0.2822          0.6804E+06
   4279      1     52     15      0.2558          0.6804E+06
   4280      1     52     16      0.2327          0.6804E+06
   4281      1     52     17      0.2073          0.6804E+06
   4282      1     52     18      0.1829          0.6804E+06
   4283      1     52     19      0.1628          0.6804E+06
   4284      1     52     20      0.1417          0.6804E+06
   4285      1     52     21      0.1245          0.6804E+06
   4286      1     52     22      0.1123          0.6804E+06
   4287      1     52     23      0.9941E-01      0.6804E+06
   4288      1     52     24      0.8616E-01      0.6804E+06
   4289      1     52     25      0.6153E-01      0.6804E+06
   4290      1     52     26      0.1179E-01      0.6804E+06
   4291      1     52     60       0.000          0.6804E+06
   4292      1     52     61       0.000          0.6804E+06
   4293      1     52     62       0.000          0.6804E+06
   4294      1     52     63       0.000          0.6804E+06
   4295      1     52     64       0.000          0.6804E+06
   4296      1     52     65       0.000          0.6804E+06
   4297      1     52     66       0.000          0.6804E+06
   4298      1     52     67       0.000          0.6804E+06
   4299      1     52     68       0.000          0.6804E+06
   4300      1     52     69       0.000          0.6804E+06
   4301      1     52     70       0.000          0.6804E+06
   4302      1     52     71       0.000          0.6804E+06
   4303      1     52     72       0.000          0.6804E+06
   4304      1     52     73       0.000          0.6804E+06
   4305      1     52     74       0.000          0.6804E+06
   4306      1     52     75       0.000          0.6804E+06
   4307      1     52     76       0.000          0.6804E+06
   4308      1     52     77      0.1572E-01      0.6804E+06
   4309      1     52     78      0.4284E-01      0.6804E+06
   4310      1     52     79      0.5901E-01      0.6804E+06
   4311      1     52     80      0.6666E-01      0.6804E+06
   4312      1     52     81      0.7299E-01      0.6804E+06
   4313      1     52     82      0.7746E-01      0.6804E+06
   4314      1     52     83      0.7968E-01      0.6804E+06
   4315      1     52     84      0.8252E-01      0.6804E+06
   4316      1     52     85      0.8423E-01      0.6804E+06
   4317      1     52     86      0.8557E-01      0.6804E+06
   4318      1     52     87      0.8694E-01      0.6804E+06
   4319      1     52     88      0.8758E-01      0.6804E+06
   4320      1     52     89      0.8741E-01      0.6804E+06
   4321      1     52     90      0.8709E-01      0.6804E+06
   4322      1     52     91      0.8682E-01      0.6804E+06
   4323      1     52     92      0.8502E-01      0.6804E+06
   4324      1     52     93      0.8294E-01      0.6804E+06
   4325      1     52     94      0.7981E-01      0.6804E+06
   4326      1     52     95      0.7585E-01      0.6804E+06
   4327      1     52     96      0.7188E-01      0.6804E+06
   4328      1     52     97      0.6865E-01      0.6804E+06
   4329      1     52     98      0.6960E-01      0.6804E+06
   4330      1     52     99      0.7478E-01      0.6804E+06
   4331      1     52    100      0.7955E-01      0.6804E+06
   4332      1     53      1      0.6516          0.6804E+06
   4333      1     53      2      0.5689          0.6804E+06
   4334      1     53      3      0.4989          0.6804E+06
   4335      1     53      4      0.4266          0.6804E+06
   4336      1     53      5      0.3680          0.6804E+06
   4337      1     53      6      0.3333          0.6804E+06
   4338      1     53      7      0.3159          0.6804E+06
   4339      1     53      8      0.3079          0.6804E+06
   4340      1     53      9      0.3056          0.6804E+06
   4341      1     53     10      0.3056          0.6804E+06
   4342      1     53     11      0.3059          0.6804E+06
   4343      1     53     12      0.3033          0.6804E+06
   4344      1     53     13      0.2912          0.6804E+06
   4345      1     53     14      0.2739          0.6804E+06
   4346      1     53     15      0.2486          0.6804E+06
   4347      1     53     16      0.2249          0.6804E+06
   4348      1     53     17      0.1988          0.6804E+06
   4349      1     53     18      0.1759          0.6804E+06
   4350      1     53     19      0.1590          0.6804E+06
   4351      1     53     20      0.1426          0.6804E+06
   4352      1     53     21      0.1282          0.6804E+06
   4353      1     53     22      0.1165          0.6804E+06
   4354      1     53     23      0.1024          0.6804E+06
   4355      1     53     24      0.8684E-01      0.6804E+06
   4356      1     53     25      0.5886E-01      0.6804E+06
   4357      1     53     26      0.2275E-01      0.6804E+06
   4358      1     53     27     -0.4083E-01      0.6804E+06
   4359      1     53     60       0.000          0.6804E+06
   4360      1     53     61       0.000          0.6804E+06
   4361      1     53     62       0.000          0.6804E+06
   4362      1     53     63       0.000          0.6804E+06
   4363      1     53     64       0.000          0.6804E+06
   4364      1     53     65       0.000          0.6804E+06
   4365      1     53     66       0.000          0.6804E+06
   4366      1     53     67       0.000          0.6804E+06
   4367      1     53     68       0.000          0.6804E+06
   4368      1     53     69       0.000          0.6804E+06
   4369      1     53     70       0.000          0.6804E+06
   4370      1     53     71       0.000          0.6804E+06
   4371      1     53     72       0.000          0.6804E+06
   4372      1     53     73       0.000          0.6804E+06
   4373      1     53     74       0.000          0.6804E+06
   4374      1     53     75       0.000          0.6804E+06
   4375      1     53     76       0.000          0.6804E+06
   4376      1     53     77      0.3067E-01      0.6804E+06
   4377      1     53     78      0.3098E-01      0.6804E+06
   4378      1     53     79      0.4053E-01      0.6804E+06
   4379      1     53     80      0.4985E-01      0.6804E+06
   4380      1     53     81      0.5936E-01      0.6804E+06
   4381      1     53     82      0.6622E-01      0.6804E+06
   4382      1     53     83      0.7034E-01      0.6804E+06
   4383      1     53     84      0.7698E-01      0.6804E+06
   4384      1     53     85      0.8097E-01      0.6804E+06
   4385      1     53     86      0.8344E-01      0.6804E+06
   4386      1     53     87      0.8571E-01      0.6804E+06
   4387      1     53     88      0.8765E-01      0.6804E+06
   4388      1     53     89      0.8923E-01      0.6804E+06
   4389      1     53     90      0.9073E-01      0.6804E+06
   4390      1     53     91      0.9206E-01      0.6804E+06
   4391      1     53     92      0.9175E-01      0.6804E+06
   4392      1     53     93      0.9055E-01      0.6804E+06
   4393      1     53     94      0.8819E-01      0.6804E+06
   4394      1     53     95      0.8493E-01      0.6804E+06
   4395      1     53     96      0.8153E-01      0.6804E+06
   4396      1     53     97      0.7871E-01      0.6804E+06
   4397      1     53     98      0.7956E-01      0.6804E+06
   4398      1     53     99      0.8438E-01      0.6804E+06
   4399      1     53    100      0.8848E-01      0.6804E+06
   4400      1     54      1      0.6457          0.6804E+06
   4401      1     54      2      0.5612          0.6804E+06
   4402      1     54      3      0.4902          0.6804E+06
   4403      1     54      4      0.4186          0.6804E+06
   4404      1     54      5      0.3628          0.6804E+06
   4405      1     54      6      0.3289          0.6804E+06
   4406      1     54      7      0.3089          0.6804E+06
   4407      1     54      8      0.3004          0.6804E+06
   4408      1     54      9      0.2982          0.6804E+06
   4409      1     54     10      0.2983          0.6804E+06
   4410      1     54     11      0.2982          0.6804E+06
   4411      1     54     12      0.2944          0.6804E+06
   4412      1     54     13      0.2827          0.6804E+06
   4413      1     54     14      0.2663          0.6804E+06
   4414      1     54     15      0.2418          0.6804E+06
   4415      1     54     16      0.2176          0.6804E+06
   4416      1     54     17      0.1901          0.6804E+06
   4417      1     54     18      0.1683          0.6804E+06
   4418      1     54     19      0.1550          0.6804E+06
   4419      1     54     20      0.1420          0.6804E+06
   4420      1     54     21      0.1300          0.6804E+06
   4421      1     54     22      0.1195          0.6804E+06
   4422      1     54     23      0.1059          0.6804E+06
   4423      1     54     24      0.9019E-01      0.6804E+06
   4424      1     54     25      0.6155E-01      0.6804E+06
   4425      1     54     26      0.2269E-01      0.6804E+06
   4426      1     54     27     -0.3953E-01      0.6804E+06
   4427      1     54     60       0.000          0.6804E+06
   4428      1     54     61       0.000          0.6804E+06
   4429      1     54     62       0.000          0.6804E+06
   4430      1     54     63       0.000          0.6804E+06
   4431      1     54     64       0.000          0.6804E+06
   4432      1     54     65       0.000          0.6804E+06
   4433      1     54     66       0.000          0.6804E+06
   4434      1     54     67       0.000          0.6804E+06
   4435      1     54     68       0.000          0.6804E+06
   4436      1     54     69       0.000          0.6804E+06
   4437      1     54     70       0.000          0.6804E+06
   4438      1     54     71       0.000          0.6804E+06
   4439      1     54     72       0.000          0.6804E+06
   4440      1     54     73       0.000          0.6804E+06
   4441      1     54     74       0.000          0.6804E+06
   4442      1     54     75       0.000          0.6804E+06
   4443      1     54     76       0.000          0.6804E+06
   4444      1     54     77       0.000          0.6804E+06
   4445      1     54     78      0.5129E-02      0.6804E+06
   4446      1     54     79      0.1917E-01      0.6804E+06
   4447      1     54     80      0.3284E-01      0.6804E+06
   4448      1     54     81      0.4660E-01      0.6804E+06
   4449      1     54     82      0.5659E-01      0.6804E+06
   4450      1     54     83      0.6343E-01      0.6804E+06
   4451      1     54     84      0.7243E-01      0.6804E+06
   4452      1     54     85      0.7830E-01      0.6804E+06
   4453      1     54     86      0.8232E-01      0.6804E+06
   4454      1     54     87      0.8526E-01      0.6804E+06
   4455      1     54     88      0.8826E-01      0.6804E+06
   4456      1     54     89      0.9161E-01      0.6804E+06
   4457      1     54     90      0.9485E-01      0.6804E+06
   4458      1     54     91      0.9743E-01      0.6804E+06
   4459      1     54     92      0.9865E-01      0.6804E+06
   4460      1     54     93      0.9860E-01      0.6804E+06
   4461      1     54     94      0.9746E-01      0.6804E+06
   4462      1     54     95      0.9557E-01      0.6804E+06
   4463      1     54     96      0.9364E-01      0.6804E+06
   4464      1     54     97      0.9232E-01      0.6804E+06
   4465      1     54     98      0.9299E-01      0.6804E+06
   4466      1     54     99      0.9595E-01      0.6804E+06
   4467      1     54    100      0.9876E-01      0.6804E+06
   4468      1     55      1      0.6371          0.6804E+06
   4469      1     55      2      0.5506          0.6804E+06
   4470      1     55      3      0.4782          0.6804E+06
   4471      1     55      4      0.4064          0.6804E+06
   4472      1     55      5      0.3519          0.6804E+06
   4473      1     55      6      0.3198          0.6804E+06
   4474      1     55      7      0.3006          0.6804E+06
   4475      1     55      8      0.2928          0.6804E+06
   4476      1     55      9      0.2910          0.6804E+06
   4477      1     55     10      0.2914          0.6804E+06
   4478      1     55     11      0.2914          0.6804E+06
   4479      1     55     12      0.2875          0.6804E+06
   4480      1     55     13      0.2758          0.6804E+06
   4481      1     55     14      0.2597          0.6804E+06
   4482      1     55     15      0.2356          0.6804E+06
   4483      1     55     16      0.2117          0.6804E+06
   4484      1     55     17      0.1848          0.6804E+06
   4485      1     55     18      0.1648          0.6804E+06
   4486      1     55     19      0.1541          0.6804E+06
   4487      1     55     20      0.1429          0.6804E+06
   4488      1     55     21      0.1329          0.6804E+06
   4489      1     55     22      0.1240          0.6804E+06
   4490      1     55     23      0.1118          0.6804E+06
   4491      1     55     24      0.9718E-01      0.6804E+06
   4492      1     55     25      0.7122E-01      0.6804E+06
   4493      1     55     26      0.3151E-01      0.6804E+06
   4494      1     55     27     -0.1204E-01      0.6804E+06
   4495      1     55     60       0.000          0.6804E+06
   4496      1     55     61       0.000          0.6804E+06
   4497      1     55     62       0.000          0.6804E+06
   4498      1     55     63       0.000          0.6804E+06
   4499      1     55     64       0.000          0.6804E+06
   4500      1     55     65       0.000          0.6804E+06
   4501      1     55     66       0.000          0.6804E+06
   4502      1     55     67       0.000          0.6804E+06
   4503      1     55     68       0.000          0.6804E+06
   4504      1     55     69       0.000          0.6804E+06
   4505      1     55     70       0.000          0.6804E+06
   4506      1     55     71       0.000          0.6804E+06
   4507      1     55     72       0.000          0.6804E+06
   4508      1     55     73       0.000          0.6804E+06
   4509      1     55     74       0.000          0.6804E+06
   4510      1     55     75       0.000          0.6804E+06
   4511      1     55     76       0.000          0.6804E+06
   4512      1     55     77       0.000          0.6804E+06
   4513      1     55     78       0.000          0.6804E+06
   4514      1     55     79       0.000          0.6804E+06
   4515      1     55     80      0.1475E-01      0.6804E+06
   4516      1     55     81      0.3321E-01      0.6804E+06
   4517      1     55     82      0.4759E-01      0.6804E+06
   4518      1     55     83      0.5775E-01      0.6804E+06
   4519      1     55     84      0.6920E-01      0.6804E+06
   4520      1     55     85      0.7678E-01      0.6804E+06
   4521      1     55     86      0.8222E-01      0.6804E+06
   4522      1     55     87      0.8665E-01      0.6804E+06
   4523      1     55     88      0.9097E-01      0.6804E+06
   4524      1     55     89      0.9613E-01      0.6804E+06
   4525      1     55     90      0.1012          0.6804E+06
   4526      1     55     91      0.1052          0.6804E+06
   4527      1     55     92      0.1084          0.6804E+06
   4528      1     55     93      0.1098          0.6804E+06
   4529      1     55     94      0.1102          0.6804E+06
   4530      1     55     95      0.1099          0.6804E+06
   4531      1     55     96      0.1094          0.6804E+06
   4532      1     55     97      0.1092          0.6804E+06
   4533      1     55     98      0.1098          0.6804E+06
   4534      1     55     99      0.1116          0.6804E+06
   4535      1     55    100      0.1131          0.6804E+06
   4536      1     56      1      0.6312          0.6804E+06
   4537      1     56      2      0.5409          0.6804E+06
   4538      1     56      3      0.4642          0.6804E+06
   4539      1     56      4      0.3887          0.6804E+06
   4540      1     56      5      0.3345          0.6804E+06
   4541      1     56      6      0.3061          0.6804E+06
   4542      1     56      7      0.2913          0.6804E+06
   4543      1     56      8      0.2862          0.6804E+06
   4544      1     56      9      0.2857          0.6804E+06
   4545      1     56     10      0.2869          0.6804E+06
   4546      1     56     11      0.2876          0.6804E+06
   4547      1     56     12      0.2847          0.6804E+06
   4548      1     56     13      0.2729          0.6804E+06
   4549      1     56     14      0.2561          0.6804E+06
   4550      1     56     15      0.2319          0.6804E+06
   4551      1     56     16      0.2096          0.6804E+06
   4552      1     56     17      0.1859          0.6804E+06
   4553      1     56     18      0.1684          0.6804E+06
   4554      1     56     19      0.1589          0.6804E+06
   4555      1     56     20      0.1490          0.6804E+06
   4556      1     56     21      0.1399          0.6804E+06
   4557      1     56     22      0.1312          0.6804E+06
   4558      1     56     23      0.1194          0.6804E+06
   4559      1     56     24      0.1062          0.6804E+06
   4560      1     56     25      0.8524E-01      0.6804E+06
   4561      1     56     26      0.5596E-01      0.6804E+06
   4562      1     56     27      0.1974E-01      0.6804E+06
   4563      1     56     60       0.000          0.6804E+06
   4564      1     56     61       0.000          0.6804E+06
   4565      1     56     62       0.000          0.6804E+06
   4566      1     56     63       0.000          0.6804E+06
   4567      1     56     64       0.000          0.6804E+06
   4568      1     56     65       0.000          0.6804E+06
   4569      1     56     66       0.000          0.6804E+06
   4570      1     56     67       0.000          0.6804E+06
   4571      1     56     68       0.000          0.6804E+06
   4572      1     56     69       0.000          0.6804E+06
   4573      1     56     70       0.000          0.6804E+06
   4574      1     56     71       0.000          0.6804E+06
   4575      1     56     72       0.000          0.6804E+06
   4576      1     56     73       0.000          0.6804E+06
   4577      1     56     74       0.000          0.6804E+06
   4578      1     56     75       0.000          0.6804E+06
   4579      1     56     76       0.000          0.6804E+06
   4580      1     56     77       0.000          0.6804E+06
   4581      1     56     78       0.000          0.6804E+06
   4582      1     56     79       0.000          0.6804E+06
   4583      1     56     80      0.2085E-02      0.6804E+06
   4584      1     56     81      0.2358E-01      0.6804E+06
   4585      1     56     82      0.4190E-01      0.6804E+06
   4586      1     56     83      0.5476E-01      0.6804E+06
   4587      1     56     84      0.6855E-01      0.6804E+06
   4588      1     56     85      0.7777E-01      0.6804E+06
   4589      1     56     86      0.8464E-01      0.6804E+06
   4590      1     56     87      0.9097E-01      0.6804E+06
   4591      1     56     88      0.9667E-01      0.6804E+06
   4592      1     56     89      0.1034          0.6804E+06
   4593      1     56     90      0.1098          0.6804E+06
   4594      1     56     91      0.1150          0.6804E+06
   4595      1     56     92      0.1195          0.6804E+06
   4596      1     56     93      0.1222          0.6804E+06
   4597      1     56     94      0.1241          0.6804E+06
   4598      1     56     95      0.1254          0.6804E+06
   4599      1     56     96      0.1262          0.6804E+06
   4600      1     56     97      0.1269          0.6804E+06
   4601      1     56     98      0.1277          0.6804E+06
   4602      1     56     99      0.1290          0.6804E+06
   4603      1     56    100      0.1295          0.6804E+06
   4604      1     57      1      0.6304          0.6804E+06
   4605      1     57      2      0.5364          0.6804E+06
   4606      1     57      3      0.4541          0.6804E+06
   4607      1     57      4      0.3704          0.6804E+06
   4608      1     57      5      0.3153          0.6804E+06
   4609      1     57      6      0.2940          0.6804E+06
   4610      1     57      7      0.2853          0.6804E+06
   4611      1     57      8      0.2832          0.6804E+06
   4612      1     57      9      0.2837          0.6804E+06
   4613      1     57     10      0.2851          0.6804E+06
   4614      1     57     11      0.2857          0.6804E+06
   4615      1     57     12      0.2836          0.6804E+06
   4616      1     57     13      0.2715          0.6804E+06
   4617      1     57     14      0.2540          0.6804E+06
   4618      1     57     15      0.2299          0.6804E+06
   4619      1     57     16      0.2093          0.6804E+06
   4620      1     57     17      0.1891          0.6804E+06
   4621      1     57     18      0.1748          0.6804E+06
   4622      1     57     19      0.1672          0.6804E+06
   4623      1     57     20      0.1603          0.6804E+06
   4624      1     57     21      0.1507          0.6804E+06
   4625      1     57     22      0.1400          0.6804E+06
   4626      1     57     23      0.1263          0.6804E+06
   4627      1     57     24      0.1140          0.6804E+06
   4628      1     57     25      0.9739E-01      0.6804E+06
   4629      1     57     26      0.7617E-01      0.6804E+06
   4630      1     57     27      0.5181E-01      0.6804E+06
   4631      1     57     28      0.1336E-01      0.6804E+06
   4632      1     57     60       0.000          0.6804E+06
   4633      1     57     61       0.000          0.6804E+06
   4634      1     57     62       0.000          0.6804E+06
   4635      1     57     63       0.000          0.6804E+06
   4636      1     57     64       0.000          0.6804E+06
   4637      1     57     65       0.000          0.6804E+06
   4638      1     57     66       0.000          0.6804E+06
   4639      1     57     67       0.000          0.6804E+06
   4640      1     57     68       0.000          0.6804E+06
   4641      1     57     69       0.000          0.6804E+06
   4642      1     57     70       0.000          0.6804E+06
   4643      1     57     71       0.000          0.6804E+06
   4644      1     57     72       0.000          0.6804E+06
   4645      1     57     73       0.000          0.6804E+06
   4646      1     57     74       0.000          0.6804E+06
   4647      1     57     75       0.000          0.6804E+06
   4648      1     57     76       0.000          0.6804E+06
   4649      1     57     77       0.000          0.6804E+06
   4650      1     57     78       0.000          0.6804E+06
   4651      1     57     79       0.000          0.6804E+06
   4652      1     57     80       0.000          0.6804E+06
   4653      1     57     81      0.2049E-01      0.6804E+06
   4654      1     57     82      0.4031E-01      0.6804E+06
   4655      1     57     83      0.5477E-01      0.6804E+06
   4656      1     57     84      0.7030E-01      0.6804E+06
   4657      1     57     85      0.8112E-01      0.6804E+06
   4658      1     57     86      0.8956E-01      0.6804E+06
   4659      1     57     87      0.9740E-01      0.6804E+06
   4660      1     57     88      0.1041          0.6804E+06
   4661      1     57     89      0.1119          0.6804E+06
   4662      1     57     90      0.1193          0.6804E+06
   4663      1     57     91      0.1253          0.6804E+06
   4664      1     57     92      0.1307          0.6804E+06
   4665      1     57     93      0.1343          0.6804E+06
   4666      1     57     94      0.1375          0.6804E+06
   4667      1     57     95      0.1399          0.6804E+06
   4668      1     57     96      0.1416          0.6804E+06
   4669      1     57     97      0.1430          0.6804E+06
   4670      1     57     98      0.1441          0.6804E+06
   4671      1     57     99      0.1452          0.6804E+06
   4672      1     57    100      0.1453          0.6804E+06
   4673      1     58      1      0.6357          0.6804E+06
   4674      1     58      2      0.5398          0.6804E+06
   4675      1     58      3      0.4534          0.6804E+06
   4676      1     58      4      0.3633          0.6804E+06
   4677      1     58      5      0.3074          0.6804E+06
   4678      1     58      6      0.2914          0.6804E+06
   4679      1     58      7      0.2860          0.6804E+06
   4680      1     58      8      0.2850          0.6804E+06
   4681      1     58      9      0.2852          0.6804E+06
   4682      1     58     10      0.2853          0.6804E+06
   4683      1     58     11      0.2844          0.6804E+06
   4684      1     58     12      0.2801          0.6804E+06
   4685      1     58     13      0.2674          0.6804E+06
   4686      1     58     14      0.2503          0.6804E+06
   4687      1     58     15      0.2270          0.6804E+06
   4688      1     58     16      0.2072          0.6804E+06
   4689      1     58     17      0.1894          0.6804E+06
   4690      1     58     18      0.1784          0.6804E+06
   4691      1     58     19      0.1751          0.6804E+06
   4692      1     58     20      0.1748          0.6804E+06
   4693      1     58     21      0.1637          0.6804E+06
   4694      1     58     22      0.1485          0.6804E+06
   4695      1     58     23      0.1314          0.6804E+06
   4696      1     58     24      0.1192          0.6804E+06
   4697      1     58     25      0.1056          0.6804E+06
   4698      1     58     26      0.8914E-01      0.6804E+06
   4699      1     58     27      0.6916E-01      0.6804E+06
   4700      1     58     28      0.3482E-01      0.6804E+06
   4701      1     58     60       0.000          0.6804E+06
   4702      1     58     61       0.000          0.6804E+06
   4703      1     58     62       0.000          0.6804E+06
   4704      1     58     63       0.000          0.6804E+06
   4705      1     58     64       0.000          0.6804E+06
   4706      1     58     65       0.000          0.6804E+06
   4707      1     58     66       0.000          0.6804E+06
   4708      1     58     67       0.000          0.6804E+06
   4709      1     58     68       0.000          0.6804E+06
   4710      1     58     69       0.000          0.6804E+06
   4711      1     58     70       0.000          0.6804E+06
   4712      1     58     71       0.000          0.6804E+06
   4713      1     58     72       0.000          0.6804E+06
   4714      1     58     73       0.000          0.6804E+06
   4715      1     58     74       0.000          0.6804E+06
   4716      1     58     75       0.000          0.6804E+06
   4717      1     58     76       0.000          0.6804E+06
   4718      1     58     77       0.000          0.6804E+06
   4719      1     58     78       0.000          0.6804E+06
   4720      1     58     79       0.000          0.6804E+06
   4721      1     58     80       0.000          0.6804E+06
   4722      1     58     81      0.2124E-01      0.6804E+06
   4723      1     58     82      0.4235E-01      0.6804E+06
   4724      1     58     83      0.5872E-01      0.6804E+06
   4725      1     58     84      0.7556E-01      0.6804E+06
   4726      1     58     85      0.8743E-01      0.6804E+06
   4727      1     58     86      0.9713E-01      0.6804E+06
   4728      1     58     87      0.1062          0.6804E+06
   4729      1     58     88      0.1138          0.6804E+06
   4730      1     58     89      0.1227          0.6804E+06
   4731      1     58     90      0.1315          0.6804E+06
   4732      1     58     91      0.1380          0.6804E+06
   4733      1     58     92      0.1443          0.6804E+06
   4734      1     58     93      0.1488          0.6804E+06
   4735      1     58     94      0.1527          0.6804E+06
   4736      1     58     95      0.1560          0.6804E+06
   4737      1     58     96      0.1583          0.6804E+06
   4738      1     58     97      0.1603          0.6804E+06
   4739      1     58     98      0.1617          0.6804E+06
   4740      1     58     99      0.1629          0.6804E+06
   4741      1     58    100      0.1629          0.6804E+06
   4742      1     59      1      0.6494          0.6804E+06
   4743      1     59      2      0.5567          0.6804E+06
   4744      1     59      3      0.4732          0.6804E+06
   4745      1     59      4      0.3870          0.6804E+06
   4746      1     59      5      0.3298          0.6804E+06
   4747      1     59      6      0.3085          0.6804E+06
   4748      1     59      7      0.2980          0.6804E+06
   4749      1     59      8      0.2934          0.6804E+06
   4750      1     59      9      0.2909          0.6804E+06
   4751      1     59     10      0.2882          0.6804E+06
   4752      1     59     11      0.2849          0.6804E+06
   4753      1     59     12      0.2776          0.6804E+06
   4754      1     59     13      0.2639          0.6804E+06
   4755      1     59     14      0.2469          0.6804E+06
   4756      1     59     15      0.2236          0.6804E+06
   4757      1     59     16      0.2030          0.6804E+06
   4758      1     59     17      0.1850          0.6804E+06
   4759      1     59     18      0.1755          0.6804E+06
   4760      1     59     19      0.1749          0.6804E+06
   4761      1     59     20      0.1754          0.6804E+06
   4762      1     59     21      0.1638          0.6804E+06
   4763      1     59     22      0.1476          0.6804E+06
   4764      1     59     23      0.1293          0.6804E+06
   4765      1     59     24      0.1181          0.6804E+06
   4766      1     59     25      0.1070          0.6804E+06
   4767      1     59     26      0.9443E-01      0.6804E+06
   4768      1     59     27      0.7971E-01      0.6804E+06
   4769      1     59     28      0.5402E-01      0.6804E+06
   4770      1     59     61       0.000          0.6804E+06
   4771      1     59     62       0.000          0.6804E+06
   4772      1     59     63       0.000          0.6804E+06
   4773      1     59     64       0.000          0.6804E+06
   4774      1     59     65       0.000          0.6804E+06
   4775      1     59     66       0.000          0.6804E+06
   4776      1     59     67       0.000          0.6804E+06
   4777      1     59     68       0.000          0.6804E+06
   4778      1     59     69       0.000          0.6804E+06
   4779      1     59     70       0.000          0.6804E+06
   4780      1     59     71       0.000          0.6804E+06
   4781      1     59     72       0.000          0.6804E+06
   4782      1     59     73       0.000          0.6804E+06
   4783      1     59     74       0.000          0.6804E+06
   4784      1     59     75       0.000          0.6804E+06
   4785      1     59     76       0.000          0.6804E+06
   4786      1     59     77       0.000          0.6804E+06
   4787      1     59     78       0.000          0.6804E+06
   4788      1     59     79       0.000          0.6804E+06
   4789      1     59     80      0.1650E-02      0.6804E+06
   4790      1     59     81      0.2706E-01      0.6804E+06
   4791      1     59     82      0.4928E-01      0.6804E+06
   4792      1     59     83      0.6667E-01      0.6804E+06
   4793      1     59     84      0.8386E-01      0.6804E+06
   4794      1     59     85      0.9644E-01      0.6804E+06
   4795      1     59     86      0.1079          0.6804E+06
   4796      1     59     87      0.1176          0.6804E+06
   4797      1     59     88      0.1263          0.6804E+06
   4798      1     59     89      0.1368          0.6804E+06
   4799      1     59     90      0.1469          0.6804E+06
   4800      1     59     91      0.1541          0.6804E+06
   4801      1     59     92      0.1614          0.6804E+06
   4802      1     59     93      0.1668          0.6804E+06
   4803      1     59     94      0.1716          0.6804E+06
   4804      1     59     95      0.1757          0.6804E+06
   4805      1     59     96      0.1789          0.6804E+06
   4806      1     59     97      0.1816          0.6804E+06
   4807      1     59     98      0.1835          0.6804E+06
   4808      1     59     99      0.1850          0.6804E+06
   4809      1     59    100      0.1851          0.6804E+06
   4810      1     60      1      0.6688          0.6804E+06
   4811      1     60      2      0.5820          0.6804E+06
   4812      1     60      3      0.5054          0.6804E+06
   4813      1     60      4      0.4270          0.6804E+06
   4814      1     60      5      0.3690          0.6804E+06
   4815      1     60      6      0.3378          0.6804E+06
   4816      1     60      7      0.3171          0.6804E+06
   4817      1     60      8      0.3057          0.6804E+06
   4818      1     60      9      0.2989          0.6804E+06
   4819      1     60     10      0.2927          0.6804E+06
   4820      1     60     11      0.2873          0.6804E+06
   4821      1     60     12      0.2784          0.6804E+06
   4822      1     60     13      0.2638          0.6804E+06
   4823      1     60     14      0.2457          0.6804E+06
   4824      1     60     15      0.2212          0.6804E+06
   4825      1     60     16      0.1994          0.6804E+06
   4826      1     60     17      0.1803          0.6804E+06
   4827      1     60     18      0.1710          0.6804E+06
   4828      1     60     19      0.1713          0.6804E+06
   4829      1     60     20      0.1696          0.6804E+06
   4830      1     60     21      0.1578          0.6804E+06
   4831      1     60     22      0.1417          0.6804E+06
   4832      1     60     23      0.1228          0.6804E+06
   4833      1     60     24      0.1137          0.6804E+06
   4834      1     60     25      0.1050          0.6804E+06
   4835      1     60     26      0.9487E-01      0.6804E+06
   4836      1     60     27      0.8268E-01      0.6804E+06
   4837      1     60     28      0.6146E-01      0.6804E+06
   4838      1     60     61       0.000          0.6804E+06
   4839      1     60     62       0.000          0.6804E+06
   4840      1     60     63       0.000          0.6804E+06
   4841      1     60     64       0.000          0.6804E+06
   4842      1     60     65       0.000          0.6804E+06
   4843      1     60     66       0.000          0.6804E+06
   4844      1     60     67       0.000          0.6804E+06
   4845      1     60     68       0.000          0.6804E+06
   4846      1     60     69       0.000          0.6804E+06
   4847      1     60     70       0.000          0.6804E+06
   4848      1     60     71       0.000          0.6804E+06
   4849      1     60     72       0.000          0.6804E+06
   4850      1     60     73       0.000          0.6804E+06
   4851      1     60     74       0.000          0.6804E+06
   4852      1     60     75       0.000          0.6804E+06
   4853      1     60     76       0.000          0.6804E+06
   4854      1     60     77       0.000          0.6804E+06
   4855      1     60     78       0.000          0.6804E+06
   4856      1     60     79       0.000          0.6804E+06
   4857      1     60     80      0.1271E-01      0.6804E+06
   4858      1     60     81      0.3838E-01      0.6804E+06
   4859      1     60     82      0.6108E-01      0.6804E+06
   4860      1     60     83      0.7876E-01      0.6804E+06
   4861      1     60     84      0.9578E-01      0.6804E+06
   4862      1     60     85      0.1085          0.6804E+06
   4863      1     60     86      0.1211          0.6804E+06
   4864      1     60     87      0.1311          0.6804E+06
   4865      1     60     88      0.1402          0.6804E+06
   4866      1     60     89      0.1514          0.6804E+06
   4867      1     60     90      0.1617          0.6804E+06
   4868      1     60     91      0.1691          0.6804E+06
   4869      1     60     92      0.1767          0.6804E+06
   4870      1     60     93      0.1824          0.6804E+06
   4871      1     60     94      0.1876          0.6804E+06
   4872      1     60     95      0.1923          0.6804E+06
   4873      1     60     96      0.1959          0.6804E+06
   4874      1     60     97      0.1991          0.6804E+06
   4875      1     60     98      0.2014          0.6804E+06
   4876      1     60     99      0.2032          0.6804E+06
   4877      1     60    100      0.2035          0.6804E+06
   4878      1     61      1      0.6976          0.6804E+06
   4879      1     61      2      0.6178          0.6804E+06
   4880      1     61      3      0.5477          0.6804E+06
   4881      1     61      4      0.4742          0.6804E+06
   4882      1     61      5      0.4134          0.6804E+06
   4883      1     61      6      0.3726          0.6804E+06
   4884      1     61      7      0.3405          0.6804E+06
   4885      1     61      8      0.3211          0.6804E+06
   4886      1     61      9      0.3091          0.6804E+06
   4887      1     61     10      0.2979          0.6804E+06
   4888      1     61     11      0.2905          0.6804E+06
   4889      1     61     12      0.2818          0.6804E+06
   4890      1     61     13      0.2666          0.6804E+06
   4891      1     61     14      0.2464          0.6804E+06
   4892      1     61     15      0.2205          0.6804E+06
   4893      1     61     16      0.1984          0.6804E+06
   4894      1     61     17      0.1790          0.6804E+06
   4895      1     61     18      0.1690          0.6804E+06
   4896      1     61     19      0.1679          0.6804E+06
   4897      1     61     20      0.1635          0.6804E+06
   4898      1     61     21      0.1507          0.6804E+06
   4899      1     61     22      0.1343          0.6804E+06
   4900      1     61     23      0.1152          0.6804E+06
   4901      1     61     24      0.1078          0.6804E+06
   4902      1     61     25      0.1013          0.6804E+06
   4903      1     61     26      0.9303E-01      0.6804E+06
   4904      1     61     27      0.8277E-01      0.6804E+06
   4905      1     61     28      0.6609E-01      0.6804E+06
   4906      1     61     61       0.000          0.6804E+06
   4907      1     61     62       0.000          0.6804E+06
   4908      1     61     63       0.000          0.6804E+06
   4909      1     61     64       0.000          0.6804E+06
   4910      1     61     65       0.000          0.6804E+06
   4911      1     61     66       0.000          0.6804E+06
   4912      1     61     67       0.000          0.6804E+06
   4913      1     61     68       0.000          0.6804E+06
   4914      1     61     69       0.000          0.6804E+06
   4915      1     61     70       0.000          0.6804E+06
   4916      1     61     71       0.000          0.6804E+06
   4917      1     61     72       0.000          0.6804E+06
   4918      1     61     73       0.000          0.6804E+06
   4919      1     61     74       0.000          0.6804E+06
   4920      1     61     75       0.000          0.6804E+06
   4921      1     61     76       0.000          0.6804E+06
   4922      1     61     77       0.000          0.6804E+06
   4923      1     61     78       0.000          0.6804E+06
   4924      1     61     79      0.3636E-02      0.6804E+06
   4925      1     61     80      0.3003E-01      0.6804E+06
   4926      1     61     81      0.5554E-01      0.6804E+06
   4927      1     61     82      0.7794E-01      0.6804E+06
   4928      1     61     83      0.9543E-01      0.6804E+06
   4929      1     61     84      0.1124          0.6804E+06
   4930      1     61     85      0.1255          0.6804E+06
   4931      1     61     86      0.1392          0.6804E+06
   4932      1     61     87      0.1499          0.6804E+06
   4933      1     61     88      0.1593          0.6804E+06
   4934      1     61     89      0.1704          0.6804E+06
   4935      1     61     90      0.1802          0.6804E+06
   4936      1     61     91      0.1875          0.6804E+06
   4937      1     61     92      0.1949          0.6804E+06
   4938      1     61     93      0.2007          0.6804E+06
   4939      1     61     94      0.2062          0.6804E+06
   4940      1     61     95      0.2114          0.6804E+06
   4941      1     61     96      0.2155          0.6804E+06
   4942      1     61     97      0.2193          0.6804E+06
   4943      1     61     98      0.2220          0.6804E+06
   4944      1     61     99      0.2241          0.6804E+06
   4945      1     61    100      0.2246          0.6804E+06
   4946      1     62      1      0.7240          0.6804E+06
   4947      1     62      2      0.6493          0.6804E+06
   4948      1     62      3      0.5830          0.6804E+06
   4949      1     62      4      0.5107          0.6804E+06
   4950      1     62      5      0.4463          0.6804E+06
   4951      1     62      6      0.3983          0.6804E+06
   4952      1     62      7      0.3567          0.6804E+06
   4953      1     62      8      0.3291          0.6804E+06
   4954      1     62      9      0.3119          0.6804E+06
   4955      1     62     10      0.2971          0.6804E+06
   4956      1     62     11      0.2883          0.6804E+06
   4957      1     62     12      0.2802          0.6804E+06
   4958      1     62     13      0.2656          0.6804E+06
   4959      1     62     14      0.2444          0.6804E+06
   4960      1     62     15      0.2195          0.6804E+06
   4961      1     62     16      0.2002          0.6804E+06
   4962      1     62     17      0.1834          0.6804E+06
   4963      1     62     18      0.1738          0.6804E+06
   4964      1     62     19      0.1698          0.6804E+06
   4965      1     62     20      0.1632          0.6804E+06
   4966      1     62     21      0.1495          0.6804E+06
   4967      1     62     22      0.1331          0.6804E+06
   4968      1     62     23      0.1147          0.6804E+06
   4969      1     62     24      0.1041          0.6804E+06
   4970      1     62     25      0.9581E-01      0.6804E+06
   4971      1     62     26      0.8906E-01      0.6804E+06
   4972      1     62     27      0.8189E-01      0.6804E+06
   4973      1     62     28      0.7195E-01      0.6804E+06
   4974      1     62     62       0.000          0.6804E+06
   4975      1     62     63       0.000          0.6804E+06
   4976      1     62     64       0.000          0.6804E+06
   4977      1     62     65       0.000          0.6804E+06
   4978      1     62     66       0.000          0.6804E+06
   4979      1     62     67       0.000          0.6804E+06
   4980      1     62     68       0.000          0.6804E+06
   4981      1     62     69       0.000          0.6804E+06
   4982      1     62     70       0.000          0.6804E+06
   4983      1     62     71       0.000          0.6804E+06
   4984      1     62     72       0.000          0.6804E+06
   4985      1     62     73       0.000          0.6804E+06
   4986      1     62     74       0.000          0.6804E+06
   4987      1     62     75       0.000          0.6804E+06
   4988      1     62     76       0.000          0.6804E+06
   4989      1     62     77       0.000          0.6804E+06
   4990      1     62     78       0.000          0.6804E+06
   4991      1     62     79      0.2687E-01      0.6804E+06
   4992      1     62     80      0.5086E-01      0.6804E+06
   4993      1     62     81      0.7451E-01      0.6804E+06
   4994      1     62     82      0.9576E-01      0.6804E+06
   4995      1     62     83      0.1131          0.6804E+06
   4996      1     62     84      0.1301          0.6804E+06
   4997      1     62     85      0.1434          0.6804E+06
   4998      1     62     86      0.1578          0.6804E+06
   4999      1     62     87      0.1699          0.6804E+06
   5000      1     62     88      0.1792          0.6804E+06
   5001      1     62     89      0.1893          0.6804E+06
   5002      1     62     90      0.1978          0.6804E+06
   5003      1     62     91      0.2042          0.6804E+06
   5004      1     62     92      0.2111          0.6804E+06
   5005      1     62     93      0.2166          0.6804E+06
   5006      1     62     94      0.2222          0.6804E+06
   5007      1     62     95      0.2277          0.6804E+06
   5008      1     62     96      0.2323          0.6804E+06
   5009      1     62     97      0.2367          0.6804E+06
   5010      1     62     98      0.2399          0.6804E+06
   5011      1     62     99      0.2420          0.6804E+06
   5012      1     62    100      0.2425          0.6804E+06
   5013      1     63      1      0.7647          0.6804E+06
   5014      1     63      2      0.6953          0.6804E+06
   5015      1     63      3      0.6322          0.6804E+06
   5016      1     63      4      0.5590          0.6804E+06
   5017      1     63      5      0.4875          0.6804E+06
   5018      1     63      6      0.4283          0.6804E+06
   5019      1     63      7      0.3718          0.6804E+06
   5020      1     63      8      0.3312          0.6804E+06
   5021      1     63      9      0.3063          0.6804E+06
   5022      1     63     10      0.2882          0.6804E+06
   5023      1     63     11      0.2781          0.6804E+06
   5024      1     63     12      0.2691          0.6804E+06
   5025      1     63     13      0.2554          0.6804E+06
   5026      1     63     14      0.2363          0.6804E+06
   5027      1     63     15      0.2153          0.6804E+06
   5028      1     63     16      0.2003          0.6804E+06
   5029      1     63     17      0.1874          0.6804E+06
   5030      1     63     18      0.1789          0.6804E+06
   5031      1     63     19      0.1732          0.6804E+06
   5032      1     63     20      0.1645          0.6804E+06
   5033      1     63     21      0.1499          0.6804E+06
   5034      1     63     22      0.1328          0.6804E+06
   5035      1     63     23      0.1128          0.6804E+06
   5036      1     63     24      0.9874E-01      0.6804E+06
   5037      1     63     25      0.8765E-01      0.6804E+06
   5038      1     63     26      0.8152E-01      0.6804E+06
   5039      1     63     27      0.7855E-01      0.6804E+06
   5040      1     63     28      0.7447E-01      0.6804E+06
   5041      1     63     29      0.6772E-01      0.6804E+06
   5042      1     63     62       0.000          0.6804E+06
   5043      1     63     63       0.000          0.6804E+06
   5044      1     63     64       0.000          0.6804E+06
   5045      1     63     65       0.000          0.6804E+06
   5046      1     63     66       0.000          0.6804E+06
   5047      1     63     67       0.000          0.6804E+06
   5048      1     63     68       0.000          0.6804E+06
   5049      1     63     69       0.000          0.6804E+06
   5050      1     63     70       0.000          0.6804E+06
   5051      1     63     71       0.000          0.6804E+06
   5052      1     63     72       0.000          0.6804E+06
   5053      1     63     73       0.000          0.6804E+06
   5054      1     63     74       0.000          0.6804E+06
   5055      1     63     75       0.000          0.6804E+06
   5056      1     63     76       0.000          0.6804E+06
   5057      1     63     77       0.000          0.6804E+06
   5058      1     63     78      0.3195E-01      0.6804E+06
   5059      1     63     79      0.5937E-01      0.6804E+06
   5060      1     63     80      0.7975E-01      0.6804E+06
   5061      1     63     81      0.1004          0.6804E+06
   5062      1     63     82      0.1196          0.6804E+06
   5063      1     63     83      0.1355          0.6804E+06
   5064      1     63     84      0.1520          0.6804E+06
   5065      1     63     85      0.1655          0.6804E+06
   5066      1     63     86      0.1807          0.6804E+06
   5067      1     63     87      0.1938          0.6804E+06
   5068      1     63     88      0.2029          0.6804E+06
   5069      1     63     89      0.2111          0.6804E+06
   5070      1     63     90      0.2174          0.6804E+06
   5071      1     63     91      0.2226          0.6804E+06
   5072      1     63     92      0.2287          0.6804E+06
   5073      1     63     93      0.2339          0.6804E+06
   5074      1     63     94      0.2395          0.6804E+06
   5075      1     63     95      0.2455          0.6804E+06
   5076      1     63     96      0.2505          0.6804E+06
   5077      1     63     97      0.2555          0.6804E+06
   5078      1     63     98      0.2592          0.6804E+06
   5079      1     63     99      0.2613          0.6804E+06
   5080      1     63    100      0.2618          0.6804E+06
   5081      1     64      1      0.8053          0.6804E+06
   5082      1     64      2      0.7400          0.6804E+06
   5083      1     64      3      0.6788          0.6804E+06
   5084      1     64      4      0.6036          0.6804E+06
   5085      1     64      5      0.5239          0.6804E+06
   5086      1     64      6      0.4526          0.6804E+06
   5087      1     64      7      0.3795          0.6804E+06
   5088      1     64      8      0.3251          0.6804E+06
   5089      1     64      9      0.2936          0.6804E+06
   5090      1     64     10      0.2744          0.6804E+06
   5091      1     64     11      0.2630          0.6804E+06
   5092      1     64     12      0.2510          0.6804E+06
   5093      1     64     13      0.2376          0.6804E+06
   5094      1     64     14      0.2234          0.6804E+06
   5095      1     64     15      0.2076          0.6804E+06
   5096      1     64     16      0.1967          0.6804E+06
   5097      1     64     17      0.1875          0.6804E+06
   5098      1     64     18      0.1814          0.6804E+06
   5099      1     64     19      0.1768          0.6804E+06
   5100      1     64     20      0.1680          0.6804E+06
   5101      1     64     21      0.1524          0.6804E+06
   5102      1     64     22      0.1333          0.6804E+06
   5103      1     64     23      0.1095          0.6804E+06
   5104      1     64     24      0.9132E-01      0.6804E+06
   5105      1     64     25      0.7684E-01      0.6804E+06
   5106      1     64     26      0.7106E-01      0.6804E+06
   5107      1     64     27      0.7188E-01      0.6804E+06
   5108      1     64     28      0.7394E-01      0.6804E+06
   5109      1     64     29      0.7391E-01      0.6804E+06
   5110      1     64     30      0.6714E-01      0.6804E+06
   5111      1     64     62       0.000          0.6804E+06
   5112      1     64     63       0.000          0.6804E+06
   5113      1     64     64       0.000          0.6804E+06
   5114      1     64     65       0.000          0.6804E+06
   5115      1     64     66       0.000          0.6804E+06
   5116      1     64     67       0.000          0.6804E+06
   5117      1     64     68       0.000          0.6804E+06
   5118      1     64     69       0.000          0.6804E+06
   5119      1     64     70       0.000          0.6804E+06
   5120      1     64     71       0.000          0.6804E+06
   5121      1     64     72       0.000          0.6804E+06
   5122      1     64     73       0.000          0.6804E+06
   5123      1     64     74       0.000          0.6804E+06
   5124      1     64     75       0.000          0.6804E+06
   5125      1     64     76      0.2230E-01      0.6804E+06
   5126      1     64     77      0.4549E-01      0.6804E+06
   5127      1     64     78      0.7268E-01      0.6804E+06
   5128      1     64     79      0.9491E-01      0.6804E+06
   5129      1     64     80      0.1114          0.6804E+06
   5130      1     64     81      0.1289          0.6804E+06
   5131      1     64     82      0.1457          0.6804E+06
   5132      1     64     83      0.1592          0.6804E+06
   5133      1     64     84      0.1739          0.6804E+06
   5134      1     64     85      0.1874          0.6804E+06
   5135      1     64     86      0.2027          0.6804E+06
   5136      1     64     87      0.2166          0.6804E+06
   5137      1     64     88      0.2251          0.6804E+06
   5138      1     64     89      0.2313          0.6804E+06
   5139      1     64     90      0.2360          0.6804E+06
   5140      1     64     91      0.2402          0.6804E+06
   5141      1     64     92      0.2454          0.6804E+06
   5142      1     64     93      0.2502          0.6804E+06
   5143      1     64     94      0.2557          0.6804E+06
   5144      1     64     95      0.2617          0.6804E+06
   5145      1     64     96      0.2668          0.6804E+06
   5146      1     64     97      0.2718          0.6804E+06
   5147      1     64     98      0.2755          0.6804E+06
   5148      1     64     99      0.2779          0.6804E+06
   5149      1     64    100      0.2789          0.6804E+06
   5150      1     65      1      0.8433          0.6804E+06
   5151      1     65      2      0.7804          0.6804E+06
   5152      1     65      3      0.7192          0.6804E+06
   5153      1     65      4      0.6415          0.6804E+06
   5154      1     65      5      0.5560          0.6804E+06
   5155      1     65      6      0.4755          0.6804E+06
   5156      1     65      7      0.3853          0.6804E+06
   5157      1     65      8      0.3184          0.6804E+06
   5158      1     65      9      0.2833          0.6804E+06
   5159      1     65     10      0.2655          0.6804E+06
   5160      1     65     11      0.2530          0.6804E+06
   5161      1     65     12      0.2388          0.6804E+06
   5162      1     65     13      0.2247          0.6804E+06
   5163      1     65     14      0.2122          0.6804E+06
   5164      1     65     15      0.1992          0.6804E+06
   5165      1     65     16      0.1906          0.6804E+06
   5166      1     65     17      0.1839          0.6804E+06
   5167      1     65     18      0.1807          0.6804E+06
   5168      1     65     19      0.1793          0.6804E+06
   5169      1     65     20      0.1725          0.6804E+06
   5170      1     65     21      0.1564          0.6804E+06
   5171      1     65     22      0.1344          0.6804E+06
   5172      1     65     23      0.1070          0.6804E+06
   5173      1     65     24      0.8469E-01      0.6804E+06
   5174      1     65     25      0.6673E-01      0.6804E+06
   5175      1     65     26      0.6113E-01      0.6804E+06
   5176      1     65     27      0.6565E-01      0.6804E+06
   5177      1     65     28      0.7254E-01      0.6804E+06
   5178      1     65     29      0.7758E-01      0.6804E+06
   5179      1     65     30      0.7604E-01      0.6804E+06
   5180      1     65     62       0.000          0.6804E+06
   5181      1     65     63       0.000          0.6804E+06
   5182      1     65     64       0.000          0.6804E+06
   5183      1     65     65       0.000          0.6804E+06
   5184      1     65     66       0.000          0.6804E+06
   5185      1     65     67       0.000          0.6804E+06
   5186      1     65     68       0.000          0.6804E+06
   5187      1     65     69       0.000          0.6804E+06
   5188      1     65     70       0.000          0.6804E+06
   5189      1     65     71       0.000          0.6804E+06
   5190      1     65     72       0.000          0.6804E+06
   5191      1     65     73       0.000          0.6804E+06
   5192      1     65     74       0.000          0.6804E+06
   5193      1     65     75      0.1949E-01      0.6804E+06
   5194      1     65     76      0.7660E-01      0.6804E+06
   5195      1     65     77      0.9054E-01      0.6804E+06
   5196      1     65     78      0.1097          0.6804E+06
   5197      1     65     79      0.1260          0.6804E+06
   5198      1     65     80      0.1387          0.6804E+06
   5199      1     65     81      0.1538          0.6804E+06
   5200      1     65     82      0.1687          0.6804E+06
   5201      1     65     83      0.1797          0.6804E+06
   5202      1     65     84      0.1924          0.6804E+06
   5203      1     65     85      0.2052          0.6804E+06
   5204      1     65     86      0.2200          0.6804E+06
   5205      1     65     87      0.2335          0.6804E+06
   5206      1     65     88      0.2415          0.6804E+06
   5207      1     65     89      0.2465          0.6804E+06
   5208      1     65     90      0.2506          0.6804E+06
   5209      1     65     91      0.2542          0.6804E+06
   5210      1     65     92      0.2589          0.6804E+06
   5211      1     65     93      0.2634          0.6804E+06
   5212      1     65     94      0.2688          0.6804E+06
   5213      1     65     95      0.2745          0.6804E+06
   5214      1     65     96      0.2797          0.6804E+06
   5215      1     65     97      0.2849          0.6804E+06
   5216      1     65     98      0.2884          0.6804E+06
   5217      1     65     99      0.2909          0.6804E+06
   5218      1     65    100      0.2919          0.6804E+06
   5219      1     66      1      0.8893          0.6804E+06
   5220      1     66      2      0.8288          0.6804E+06
   5221      1     66      3      0.7675          0.6804E+06
   5222      1     66      4      0.6887          0.6804E+06
   5223      1     66      5      0.6005          0.6804E+06
   5224      1     66      6      0.5151          0.6804E+06
   5225      1     66      7      0.4139          0.6804E+06
   5226      1     66      8      0.3369          0.6804E+06
   5227      1     66      9      0.2959          0.6804E+06
   5228      1     66     10      0.2720          0.6804E+06
   5229      1     66     11      0.2530          0.6804E+06
   5230      1     66     12      0.2326          0.6804E+06
   5231      1     66     13      0.2150          0.6804E+06
   5232      1     66     14      0.2025          0.6804E+06
   5233      1     66     15      0.1906          0.6804E+06
   5234      1     66     16      0.1828          0.6804E+06
   5235      1     66     17      0.1773          0.6804E+06
   5236      1     66     18      0.1770          0.6804E+06
   5237      1     66     19      0.1794          0.6804E+06
   5238      1     66     20      0.1761          0.6804E+06
   5239      1     66     21      0.1606          0.6804E+06
   5240      1     66     22      0.1362          0.6804E+06
   5241      1     66     23      0.1063          0.6804E+06
   5242      1     66     24      0.8042E-01      0.6804E+06
   5243      1     66     25      0.5877E-01      0.6804E+06
   5244      1     66     26      0.5290E-01      0.6804E+06
   5245      1     66     27      0.6109E-01      0.6804E+06
   5246      1     66     28      0.7134E-01      0.6804E+06
   5247      1     66     29      0.8049E-01      0.6804E+06
   5248      1     66     30      0.8453E-01      0.6804E+06
   5249      1     66     64       0.000          0.6804E+06
   5250      1     66     65       0.000          0.6804E+06
   5251      1     66     66       0.000          0.6804E+06
   5252      1     66     67       0.000          0.6804E+06
   5253      1     66     68       0.000          0.6804E+06
   5254      1     66     69       0.000          0.6804E+06
   5255      1     66     70       0.000          0.6804E+06
   5256      1     66     71       0.000          0.6804E+06
   5257      1     66     72       0.000          0.6804E+06
   5258      1     66     73       0.000          0.6804E+06
   5259      1     66     74      0.1345E-01      0.6804E+06
   5260      1     66     75      0.6491E-01      0.6804E+06
   5261      1     66     76      0.1138          0.6804E+06
   5262      1     66     77      0.1313          0.6804E+06
   5263      1     66     78      0.1469          0.6804E+06
   5264      1     66     79      0.1595          0.6804E+06
   5265      1     66     80      0.1696          0.6804E+06
   5266      1     66     81      0.1816          0.6804E+06
   5267      1     66     82      0.1930          0.6804E+06
   5268      1     66     83      0.2018          0.6804E+06
   5269      1     66     84      0.2123          0.6804E+06
   5270      1     66     85      0.2237          0.6804E+06
   5271      1     66     86      0.2367          0.6804E+06
   5272      1     66     87      0.2476          0.6804E+06
   5273      1     66     88      0.2547          0.6804E+06
   5274      1     66     89      0.2601          0.6804E+06
   5275      1     66     90      0.2645          0.6804E+06
   5276      1     66     91      0.2680          0.6804E+06
   5277      1     66     92      0.2724          0.6804E+06
   5278      1     66     93      0.2766          0.6804E+06
   5279      1     66     94      0.2818          0.6804E+06
   5280      1     66     95      0.2876          0.6804E+06
   5281      1     66     96      0.2929          0.6804E+06
   5282      1     66     97      0.2984          0.6804E+06
   5283      1     66     98      0.3019          0.6804E+06
   5284      1     66     99      0.3039          0.6804E+06
   5285      1     66    100      0.3045          0.6804E+06
   5286      1     67      1      0.9378          0.6804E+06
   5287      1     67      2      0.8798          0.6804E+06
   5288      1     67      3      0.8201          0.6804E+06
   5289      1     67      4      0.7431          0.6804E+06
   5290      1     67      5      0.6568          0.6804E+06
   5291      1     67      6      0.5729          0.6804E+06
   5292      1     67      7      0.4731          0.6804E+06
   5293      1     67      8      0.3918          0.6804E+06
   5294      1     67      9      0.3410          0.6804E+06
   5295      1     67     10      0.2998          0.6804E+06
   5296      1     67     11      0.2668          0.6804E+06
   5297      1     67     12      0.2348          0.6804E+06
   5298      1     67     13      0.2115          0.6804E+06
   5299      1     67     14      0.1983          0.6804E+06
   5300      1     67     15      0.1866          0.6804E+06
   5301      1     67     16      0.1779          0.6804E+06
   5302      1     67     17      0.1716          0.6804E+06
   5303      1     67     18      0.1729          0.6804E+06
   5304      1     67     19      0.1760          0.6804E+06
   5305      1     67     20      0.1729          0.6804E+06
   5306      1     67     21      0.1588          0.6804E+06
   5307      1     67     22      0.1373          0.6804E+06
   5308      1     67     23      0.1092          0.6804E+06
   5309      1     67     24      0.8535E-01      0.6804E+06
   5310      1     67     25      0.6494E-01      0.6804E+06
   5311      1     67     26      0.5779E-01      0.6804E+06
   5312      1     67     27      0.6287E-01      0.6804E+06
   5313      1     67     28      0.7176E-01      0.6804E+06
   5314      1     67     29      0.8205E-01      0.6804E+06
   5315      1     67     30      0.8959E-01      0.6804E+06
   5316      1     67     31      0.8928E-01      0.6804E+06
   5317      1     67     66       0.000          0.6804E+06
   5318      1     67     67       0.000          0.6804E+06
   5319      1     67     68       0.000          0.6804E+06
   5320      1     67     69       0.000          0.6804E+06
   5321      1     67     70       0.000          0.6804E+06
   5322      1     67     71       0.000          0.6804E+06
   5323      1     67     72       0.000          0.6804E+06
   5324      1     67     73      0.1480E-01      0.6804E+06
   5325      1     67     74      0.6347E-01      0.6804E+06
   5326      1     67     75      0.1037          0.6804E+06
   5327      1     67     76      0.1422          0.6804E+06
   5328      1     67     77      0.1633          0.6804E+06
   5329      1     67     78      0.1782          0.6804E+06
   5330      1     67     79      0.1892          0.6804E+06
   5331      1     67     80      0.1978          0.6804E+06
   5332      1     67     81      0.2072          0.6804E+06
   5333      1     67     82      0.2164          0.6804E+06
   5334      1     67     83      0.2231          0.6804E+06
   5335      1     67     84      0.2308          0.6804E+06
   5336      1     67     85      0.2400          0.6804E+06
   5337      1     67     86      0.2510          0.6804E+06
   5338      1     67     87      0.2601          0.6804E+06
   5339      1     67     88      0.2662          0.6804E+06
   5340      1     67     89      0.2714          0.6804E+06
   5341      1     67     90      0.2756          0.6804E+06
   5342      1     67     91      0.2790          0.6804E+06
   5343      1     67     92      0.2833          0.6804E+06
   5344      1     67     93      0.2874          0.6804E+06
   5345      1     67     94      0.2925          0.6804E+06
   5346      1     67     95      0.2982          0.6804E+06
   5347      1     67     96      0.3037          0.6804E+06
   5348      1     67     97      0.3095          0.6804E+06
   5349      1     67     98      0.3132          0.6804E+06
   5350      1     67     99      0.3144          0.6804E+06
   5351      1     67    100      0.3145          0.6804E+06
   5352      1     68      1      0.9804          0.6804E+06
   5353      1     68      2      0.9247          0.6804E+06
   5354      1     68      3      0.8686          0.6804E+06
   5355      1     68      4      0.7966          0.6804E+06
   5356      1     68      5      0.7156          0.6804E+06
   5357      1     68      6      0.6375          0.6804E+06
   5358      1     68      7      0.5474          0.6804E+06
   5359      1     68      8      0.4666          0.6804E+06
   5360      1     68      9      0.4044          0.6804E+06
   5361      1     68     10      0.3407          0.6804E+06
   5362      1     68     11      0.2907          0.6804E+06
   5363      1     68     12      0.2450          0.6804E+06
   5364      1     68     13      0.2151          0.6804E+06
   5365      1     68     14      0.2005          0.6804E+06
   5366      1     68     15      0.1885          0.6804E+06
   5367      1     68     16      0.1797          0.6804E+06
   5368      1     68     17      0.1732          0.6804E+06
   5369      1     68     18      0.1745          0.6804E+06
   5370      1     68     19      0.1764          0.6804E+06
   5371      1     68     20      0.1722          0.6804E+06
   5372      1     68     21      0.1587          0.6804E+06
   5373      1     68     22      0.1395          0.6804E+06
   5374      1     68     23      0.1139          0.6804E+06
   5375      1     68     24      0.9218E-01      0.6804E+06
   5376      1     68     25      0.7264E-01      0.6804E+06
   5377      1     68     26      0.6355E-01      0.6804E+06
   5378      1     68     27      0.6583E-01      0.6804E+06
   5379      1     68     28      0.7308E-01      0.6804E+06
   5380      1     68     29      0.8215E-01      0.6804E+06
   5381      1     68     30      0.8946E-01      0.6804E+06
   5382      1     68     68       0.000          0.6804E+06
   5383      1     68     69       0.000          0.6804E+06
   5384      1     68     70       0.000          0.6804E+06
   5385      1     68     71       0.000          0.6804E+06
   5386      1     68     72      0.2050E-01      0.6804E+06
   5387      1     68     73      0.5891E-01      0.6804E+06
   5388      1     68     74      0.1021          0.6804E+06
   5389      1     68     75      0.1364          0.6804E+06
   5390      1     68     76      0.1685          0.6804E+06
   5391      1     68     77      0.1877          0.6804E+06
   5392      1     68     78      0.2019          0.6804E+06
   5393      1     68     79      0.2123          0.6804E+06
   5394      1     68     80      0.2198          0.6804E+06
   5395      1     68     81      0.2275          0.6804E+06
   5396      1     68     82      0.2350          0.6804E+06
   5397      1     68     83      0.2402          0.6804E+06
   5398      1     68     84      0.2459          0.6804E+06
   5399      1     68     85      0.2531          0.6804E+06
   5400      1     68     86      0.2623          0.6804E+06
   5401      1     68     87      0.2701          0.6804E+06
   5402      1     68     88      0.2754          0.6804E+06
   5403      1     68     89      0.2797          0.6804E+06
   5404      1     68     90      0.2836          0.6804E+06
   5405      1     68     91      0.2869          0.6804E+06
   5406      1     68     92      0.2909          0.6804E+06
   5407      1     68     93      0.2948          0.6804E+06
   5408      1     68     94      0.2997          0.6804E+06
   5409      1     68     95      0.3052          0.6804E+06
   5410      1     68     96      0.3103          0.6804E+06
   5411      1     68     97      0.3156          0.6804E+06
   5412      1     68     98      0.3190          0.6804E+06
   5413      1     68     99      0.3204          0.6804E+06
   5414      1     68    100      0.3206          0.6804E+06
   5415      1     69      1       1.019          0.6804E+06
   5416      1     69      2      0.9688          0.6804E+06
   5417      1     69      3      0.9209          0.6804E+06
   5418      1     69      4      0.8591          0.6804E+06
   5419      1     69      5      0.7854          0.6804E+06
   5420      1     69      6      0.7143          0.6804E+06
   5421      1     69      7      0.6333          0.6804E+06
   5422      1     69      8      0.5542          0.6804E+06
   5423      1     69      9      0.4827          0.6804E+06
   5424      1     69     10      0.3975          0.6804E+06
   5425      1     69     11      0.3301          0.6804E+06
   5426      1     69     12      0.2690          0.6804E+06
   5427      1     69     13      0.2299          0.6804E+06
   5428      1     69     14      0.2118          0.6804E+06
   5429      1     69     15      0.1989          0.6804E+06
   5430      1     69     16      0.1910          0.6804E+06
   5431      1     69     17      0.1856          0.6804E+06
   5432      1     69     18      0.1847          0.6804E+06
   5433      1     69     19      0.1841          0.6804E+06
   5434      1     69     20      0.1779          0.6804E+06
   5435      1     69     21      0.1637          0.6804E+06
   5436      1     69     22      0.1446          0.6804E+06
   5437      1     69     23      0.1205          0.6804E+06
   5438      1     69     24      0.1003          0.6804E+06
   5439      1     69     25      0.8040E-01      0.6804E+06
   5440      1     69     26      0.6800E-01      0.6804E+06
   5441      1     69     27      0.6869E-01      0.6804E+06
   5442      1     69     28      0.7510E-01      0.6804E+06
   5443      1     69     29      0.8276E-01      0.6804E+06
   5444      1     69     30      0.8854E-01      0.6804E+06
   5445      1     69     70      0.2206E-01      0.6804E+06
   5446      1     69     71      0.4476E-01      0.6804E+06
   5447      1     69     72      0.7024E-01      0.6804E+06
   5448      1     69     73      0.1049          0.6804E+06
   5449      1     69     74      0.1407          0.6804E+06
   5450      1     69     75      0.1691          0.6804E+06
   5451      1     69     76      0.1961          0.6804E+06
   5452      1     69     77      0.2139          0.6804E+06
   5453      1     69     78      0.2266          0.6804E+06
   5454      1     69     79      0.2356          0.6804E+06
   5455      1     69     80      0.2419          0.6804E+06
   5456      1     69     81      0.2478          0.6804E+06
   5457      1     69     82      0.2529          0.6804E+06
   5458      1     69     83      0.2568          0.6804E+06
   5459      1     69     84      0.2613          0.6804E+06
   5460      1     69     85      0.2668          0.6804E+06
   5461      1     69     86      0.2738          0.6804E+06
   5462      1     69     87      0.2799          0.6804E+06
   5463      1     69     88      0.2842          0.6804E+06
   5464      1     69     89      0.2875          0.6804E+06
   5465      1     69     90      0.2910          0.6804E+06
   5466      1     69     91      0.2939          0.6804E+06
   5467      1     69     92      0.2977          0.6804E+06
   5468      1     69     93      0.3013          0.6804E+06
   5469      1     69     94      0.3057          0.6804E+06
   5470      1     69     95      0.3107          0.6804E+06
   5471      1     69     96      0.3151          0.6804E+06
   5472      1     69     97      0.3197          0.6804E+06
   5473      1     69     98      0.3226          0.6804E+06
   5474      1     69     99      0.3242          0.6804E+06
   5475      1     69    100      0.3248          0.6804E+06
   5476      1     70      1       1.039          0.6804E+06
   5477      1     70      2      0.9961          0.6804E+06
   5478      1     70      3      0.9560          0.6804E+06
   5479      1     70      4      0.9038          0.6804E+06
   5480      1     70      5      0.8388          0.6804E+06
   5481      1     70      6      0.7754          0.6804E+06
   5482      1     70      7      0.7007          0.6804E+06
   5483      1     70      8      0.6222          0.6804E+06
   5484      1     70      9      0.5448          0.6804E+06
   5485      1     70     10      0.4475          0.6804E+06
   5486      1     70     11      0.3687          0.6804E+06
   5487      1     70     12      0.2960          0.6804E+06
   5488      1     70     13      0.2494          0.6804E+06
   5489      1     70     14      0.2283          0.6804E+06
   5490      1     70     15      0.2144          0.6804E+06
   5491      1     70     16      0.2064          0.6804E+06
   5492      1     70     17      0.2007          0.6804E+06
   5493      1     70     18      0.1982          0.6804E+06
   5494      1     70     19      0.1961          0.6804E+06
   5495      1     70     20      0.1884          0.6804E+06
   5496      1     70     21      0.1725          0.6804E+06
   5497      1     70     22      0.1517          0.6804E+06
   5498      1     70     23      0.1269          0.6804E+06
   5499      1     70     24      0.1067          0.6804E+06
   5500      1     70     25      0.8626E-01      0.6804E+06
   5501      1     70     26      0.7133E-01      0.6804E+06
   5502      1     70     27      0.7160E-01      0.6804E+06
   5503      1     70     28      0.7754E-01      0.6804E+06
   5504      1     70     29      0.8380E-01      0.6804E+06
   5505      1     70     30      0.8768E-01      0.6804E+06
   5506      1     70     72      0.1065          0.6804E+06
   5507      1     70     73      0.1390          0.6804E+06
   5508      1     70     74      0.1710          0.6804E+06
   5509      1     70     75      0.1963          0.6804E+06
   5510      1     70     76      0.2208          0.6804E+06
   5511      1     70     77      0.2365          0.6804E+06
   5512      1     70     78      0.2472          0.6804E+06
   5513      1     70     79      0.2544          0.6804E+06
   5514      1     70     80      0.2592          0.6804E+06
   5515      1     70     81      0.2632          0.6804E+06
   5516      1     70     82      0.2654          0.6804E+06
   5517      1     70     83      0.2680          0.6804E+06
   5518      1     70     84      0.2721          0.6804E+06
   5519      1     70     85      0.2763          0.6804E+06
   5520      1     70     86      0.2816          0.6804E+06
   5521      1     70     87      0.2863          0.6804E+06
   5522      1     70     88      0.2897          0.6804E+06
   5523      1     70     89      0.2926          0.6804E+06
   5524      1     70     90      0.2956          0.6804E+06
   5525      1     70     91      0.2985          0.6804E+06
   5526      1     70     92      0.3021          0.6804E+06
   5527      1     70     93      0.3053          0.6804E+06
   5528      1     70     94      0.3094          0.6804E+06
   5529      1     70     95      0.3138          0.6804E+06
   5530      1     70     96      0.3177          0.6804E+06
   5531      1     70     97      0.3216          0.6804E+06
   5532      1     70     98      0.3241          0.6804E+06
   5533      1     70     99      0.3260          0.6804E+06
   5534      1     70    100      0.3269          0.6804E+06
   5535      1     71      1       1.044          0.6804E+06
   5536      1     71      2       1.012          0.6804E+06
   5537      1     71      3      0.9810          0.6804E+06
   5538      1     71      4      0.9393          0.6804E+06
   5539      1     71      5      0.8874          0.6804E+06
   5540      1     71      6      0.8357          0.6804E+06
   5541      1     71      7      0.7698          0.6804E+06
   5542      1     71      8      0.6933          0.6804E+06
   5543      1     71      9      0.6115          0.6804E+06
   5544      1     71     10      0.5047          0.6804E+06
   5545      1     71     11      0.4131          0.6804E+06
   5546      1     71     12      0.3265          0.6804E+06
   5547      1     71     13      0.2751          0.6804E+06
   5548      1     71     14      0.2534          0.6804E+06
   5549      1     71     15      0.2384          0.6804E+06
   5550      1     71     16      0.2288          0.6804E+06
   5551      1     71     17      0.2208          0.6804E+06
   5552      1     71     18      0.2147          0.6804E+06
   5553      1     71     19      0.2103          0.6804E+06
   5554      1     71     20      0.2004          0.6804E+06
   5555      1     71     21      0.1819          0.6804E+06
   5556      1     71     22      0.1587          0.6804E+06
   5557      1     71     23      0.1336          0.6804E+06
   5558      1     71     24      0.1141          0.6804E+06
   5559      1     71     25      0.9519E-01      0.6804E+06
   5560      1     71     26      0.8224E-01      0.6804E+06
   5561      1     71     27      0.7984E-01      0.6804E+06
   5562      1     71     28      0.8187E-01      0.6804E+06
   5563      1     71     29      0.8450E-01      0.6804E+06
   5564      1     71     30      0.8545E-01      0.6804E+06
   5565      1     71     74      0.2032          0.6804E+06
   5566      1     71     75      0.2267          0.6804E+06
   5567      1     71     76      0.2487          0.6804E+06
   5568      1     71     77      0.2610          0.6804E+06
   5569      1     71     78      0.2689          0.6804E+06
   5570      1     71     79      0.2737          0.6804E+06
   5571      1     71     80      0.2767          0.6804E+06
   5572      1     71     81      0.2788          0.6804E+06
   5573      1     71     82      0.2788          0.6804E+06
   5574      1     71     83      0.2797          0.6804E+06
   5575      1     71     84      0.2822          0.6804E+06
   5576      1     71     85      0.2846          0.6804E+06
   5577      1     71     86      0.2880          0.6804E+06
   5578      1     71     87      0.2912          0.6804E+06
   5579      1     71     88      0.2935          0.6804E+06
   5580      1     71     89      0.2961          0.6804E+06
   5581      1     71     90      0.2989          0.6804E+06
   5582      1     71     91      0.3017          0.6804E+06
   5583      1     71     92      0.3053          0.6804E+06
   5584      1     71     93      0.3083          0.6804E+06
   5585      1     71     94      0.3120          0.6804E+06
   5586      1     71     95      0.3160          0.6804E+06
   5587      1     71     96      0.3194          0.6804E+06
   5588      1     71     97      0.3226          0.6804E+06
   5589      1     71     98      0.3249          0.6804E+06
   5590      1     71     99      0.3268          0.6804E+06
   5591      1     71    100      0.3278          0.6804E+06
   5592      1     72      1       1.041          0.6804E+06
   5593      1     72      2       1.017          0.6804E+06
   5594      1     72      3      0.9919          0.6804E+06
   5595      1     72      4      0.9595          0.6804E+06
   5596      1     72      5      0.9222          0.6804E+06
   5597      1     72      6      0.8850          0.6804E+06
   5598      1     72      7      0.8329          0.6804E+06
   5599      1     72      8      0.7633          0.6804E+06
   5600      1     72      9      0.6782          0.6804E+06
   5601      1     72     10      0.5649          0.6804E+06
   5602      1     72     11      0.4641          0.6804E+06
   5603      1     72     12      0.3678          0.6804E+06
   5604      1     72     13      0.3126          0.6804E+06
   5605      1     72     14      0.2887          0.6804E+06
   5606      1     72     15      0.2699          0.6804E+06
   5607      1     72     16      0.2557          0.6804E+06
   5608      1     72     17      0.2422          0.6804E+06
   5609      1     72     18      0.2301          0.6804E+06
   5610      1     72     19      0.2203          0.6804E+06
   5611      1     72     20      0.2058          0.6804E+06
   5612      1     72     21      0.1849          0.6804E+06
   5613      1     72     22      0.1623          0.6804E+06
   5614      1     72     23      0.1385          0.6804E+06
   5615      1     72     24      0.1200          0.6804E+06
   5616      1     72     25      0.1024          0.6804E+06
   5617      1     72     26      0.9081E-01      0.6804E+06
   5618      1     72     27      0.8636E-01      0.6804E+06
   5619      1     72     28      0.8408E-01      0.6804E+06
   5620      1     72     29      0.8199E-01      0.6804E+06
   5621      1     72     30      0.7946E-01      0.6804E+06
   5622      1     72     31      0.8053E-01      0.6804E+06
   5623      1     72     76      0.2759          0.6804E+06
   5624      1     72     77      0.2839          0.6804E+06
   5625      1     72     78      0.2884          0.6804E+06
   5626      1     72     79      0.2909          0.6804E+06
   5627      1     72     80      0.2920          0.6804E+06
   5628      1     72     81      0.2922          0.6804E+06
   5629      1     72     82      0.2904          0.6804E+06
   5630      1     72     83      0.2896          0.6804E+06
   5631      1     72     84      0.2901          0.6804E+06
   5632      1     72     85      0.2908          0.6804E+06
   5633      1     72     86      0.2924          0.6804E+06
   5634      1     72     87      0.2942          0.6804E+06
   5635      1     72     88      0.2959          0.6804E+06
   5636      1     72     89      0.2982          0.6804E+06
   5637      1     72     90      0.3009          0.6804E+06
   5638      1     72     91      0.3037          0.6804E+06
   5639      1     72     92      0.3072          0.6804E+06
   5640      1     72     93      0.3101          0.6804E+06
   5641      1     72     94      0.3135          0.6804E+06
   5642      1     72     95      0.3171          0.6804E+06
   5643      1     72     96      0.3201          0.6804E+06
   5644      1     72     97      0.3230          0.6804E+06
   5645      1     72     98      0.3250          0.6804E+06
   5646      1     72     99      0.3267          0.6804E+06
   5647      1     72    100      0.3278          0.6804E+06
   5648      1     73      1       1.035          0.6804E+06
   5649      1     73      2       1.015          0.6804E+06
   5650      1     73      3      0.9945          0.6804E+06
   5651      1     73      4      0.9694          0.6804E+06
   5652      1     73      5      0.9434          0.6804E+06
   5653      1     73      6      0.9195          0.6804E+06
   5654      1     73      7      0.8851          0.6804E+06
   5655      1     73      8      0.8276          0.6804E+06
   5656      1     73      9      0.7387          0.6804E+06
   5657      1     73     10      0.6230          0.6804E+06
   5658      1     73     11      0.5239          0.6804E+06
   5659      1     73     12      0.4279          0.6804E+06
   5660      1     73     13      0.3649          0.6804E+06
   5661      1     73     14      0.3318          0.6804E+06
   5662      1     73     15      0.3039          0.6804E+06
   5663      1     73     16      0.2827          0.6804E+06
   5664      1     73     17      0.2617          0.6804E+06
   5665      1     73     18      0.2429          0.6804E+06
   5666      1     73     19      0.2268          0.6804E+06
   5667      1     73     20      0.2069          0.6804E+06
   5668      1     73     21      0.1843          0.6804E+06
   5669      1     73     22      0.1636          0.6804E+06
   5670      1     73     23      0.1416          0.6804E+06
   5671      1     73     24      0.1243          0.6804E+06
   5672      1     73     25      0.1073          0.6804E+06
   5673      1     73     26      0.9514E-01      0.6804E+06
   5674      1     73     27      0.8796E-01      0.6804E+06
   5675      1     73     28      0.8118E-01      0.6804E+06
   5676      1     73     29      0.7485E-01      0.6804E+06
   5677      1     73     30      0.6983E-01      0.6804E+06
   5678      1     73     31      0.6996E-01      0.6804E+06
   5679      1     73     32      0.7190E-01      0.6804E+06
   5680      1     73     78      0.3037          0.6804E+06
   5681      1     73     79      0.3039          0.6804E+06
   5682      1     73     80      0.3034          0.6804E+06
   5683      1     73     81      0.3019          0.6804E+06
   5684      1     73     82      0.2989          0.6804E+06
   5685      1     73     83      0.2967          0.6804E+06
   5686      1     73     84      0.2956          0.6804E+06
   5687      1     73     85      0.2948          0.6804E+06
   5688      1     73     86      0.2950          0.6804E+06
   5689      1     73     87      0.2958          0.6804E+06
   5690      1     73     88      0.2970          0.6804E+06
   5691      1     73     89      0.2991          0.6804E+06
   5692      1     73     90      0.3017          0.6804E+06
   5693      1     73     91      0.3045          0.6804E+06
   5694      1     73     92      0.3080          0.6804E+06
   5695      1     73     93      0.3108          0.6804E+06
   5696      1     73     94      0.3140          0.6804E+06
   5697      1     73     95      0.3174          0.6804E+06
   5698      1     73     96      0.3201          0.6804E+06
   5699      1     73     97      0.3227          0.6804E+06
   5700      1     73     98      0.3246          0.6804E+06
   5701      1     73     99      0.3262          0.6804E+06
   5702      1     73    100      0.3273          0.6804E+06
   5703      1     74      1       1.026          0.6804E+06
   5704      1     74      2       1.008          0.6804E+06
   5705      1     74      3      0.9908          0.6804E+06
   5706      1     74      4      0.9715          0.6804E+06
   5707      1     74      5      0.9550          0.6804E+06
   5708      1     74      6      0.9410          0.6804E+06
   5709      1     74      7      0.9176          0.6804E+06
   5710      1     74      8      0.8699          0.6804E+06
   5711      1     74      9      0.7894          0.6804E+06
   5712      1     74     10      0.6835          0.6804E+06
   5713      1     74     11      0.5932          0.6804E+06
   5714      1     74     12      0.5029          0.6804E+06
   5715      1     74     13      0.4336          0.6804E+06
   5716      1     74     14      0.3892          0.6804E+06
   5717      1     74     15      0.3487          0.6804E+06
   5718      1     74     16      0.3174          0.6804E+06
   5719      1     74     17      0.2861          0.6804E+06
   5720      1     74     18      0.2591          0.6804E+06
   5721      1     74     19      0.2364          0.6804E+06
   5722      1     74     20      0.2106          0.6804E+06
   5723      1     74     21      0.1852          0.6804E+06
   5724      1     74     22      0.1656          0.6804E+06
   5725      1     74     23      0.1452          0.6804E+06
   5726      1     74     24      0.1289          0.6804E+06
   5727      1     74     25      0.1121          0.6804E+06
   5728      1     74     26      0.9792E-01      0.6804E+06
   5729      1     74     27      0.8700E-01      0.6804E+06
   5730      1     74     28      0.7528E-01      0.6804E+06
   5731      1     74     29      0.6438E-01      0.6804E+06
   5732      1     74     30      0.5653E-01      0.6804E+06
   5733      1     74     31      0.5697E-01      0.6804E+06
   5734      1     74     32      0.6116E-01      0.6804E+06
   5735      1     74     33      0.6568E-01      0.6804E+06
   5736      1     74     80      0.3134          0.6804E+06
   5737      1     74     81      0.3107          0.6804E+06
   5738      1     74     82      0.3066          0.6804E+06
   5739      1     74     83      0.3032          0.6804E+06
   5740      1     74     84      0.3003          0.6804E+06
   5741      1     74     85      0.2981          0.6804E+06
   5742      1     74     86      0.2966          0.6804E+06
   5743      1     74     87      0.2962          0.6804E+06
   5744      1     74     88      0.2971          0.6804E+06
   5745      1     74     89      0.2991          0.6804E+06
   5746      1     74     90      0.3018          0.6804E+06
   5747      1     74     91      0.3047          0.6804E+06
   5748      1     74     92      0.3082          0.6804E+06
   5749      1     74     93      0.3111          0.6804E+06
   5750      1     74     94      0.3142          0.6804E+06
   5751      1     74     95      0.3172          0.6804E+06
   5752      1     74     96      0.3197          0.6804E+06
   5753      1     74     97      0.3220          0.6804E+06
   5754      1     74     98      0.3237          0.6804E+06
   5755      1     74     99      0.3252          0.6804E+06
   5756      1     74    100      0.3263          0.6804E+06
   5757      1     75      1       1.016          0.6804E+06
   5758      1     75      2      0.9983          0.6804E+06
   5759      1     75      3      0.9817          0.6804E+06
   5760      1     75      4      0.9645          0.6804E+06
   5761      1     75      5      0.9552          0.6804E+06
   5762      1     75      6      0.9469          0.6804E+06
   5763      1     75      7      0.9281          0.6804E+06
   5764      1     75      8      0.8868          0.6804E+06
   5765      1     75      9      0.8213          0.6804E+06
   5766      1     75     10      0.7319          0.6804E+06
   5767      1     75     11      0.6532          0.6804E+06
   5768      1     75     12      0.5702          0.6804E+06
   5769      1     75     13      0.4986          0.6804E+06
   5770      1     75     14      0.4465          0.6804E+06
   5771      1     75     15      0.3956          0.6804E+06
   5772      1     75     16      0.3550          0.6804E+06
   5773      1     75     17      0.3131          0.6804E+06
   5774      1     75     18      0.2790          0.6804E+06
   5775      1     75     19      0.2512          0.6804E+06
   5776      1     75     20      0.2205          0.6804E+06
   5777      1     75     21      0.1922          0.6804E+06
   5778      1     75     22      0.1718          0.6804E+06
   5779      1     75     23      0.1510          0.6804E+06
   5780      1     75     24      0.1344          0.6804E+06
   5781      1     75     25      0.1171          0.6804E+06
   5782      1     75     26      0.1013          0.6804E+06
   5783      1     75     27      0.8772E-01      0.6804E+06
   5784      1     75     28      0.7226E-01      0.6804E+06
   5785      1     75     29      0.5739E-01      0.6804E+06
   5786      1     75     30      0.4658E-01      0.6804E+06
   5787      1     75     31      0.4732E-01      0.6804E+06
   5788      1     75     32      0.5269E-01      0.6804E+06
   5789      1     75     33      0.5864E-01      0.6804E+06
   5790      1     75     34      0.6090E-01      0.6804E+06
   5791      1     75     35      0.5981E-01      0.6804E+06
   5792      1     75     36      0.5356E-01      0.6804E+06
   5793      1     75     37      0.4033E-01      0.6804E+06
   5794      1     75     38      0.2141E-01      0.6804E+06
   5795      1     75     39     -0.4928E-02      0.6804E+06
   5796      1     75     40     -0.4860E-01      0.6804E+06
   5797      1     75     82      0.3118          0.6804E+06
   5798      1     75     83      0.3075          0.6804E+06
   5799      1     75     84      0.3034          0.6804E+06
   5800      1     75     85      0.3000          0.6804E+06
   5801      1     75     86      0.2970          0.6804E+06
   5802      1     75     87      0.2954          0.6804E+06
   5803      1     75     88      0.2959          0.6804E+06
   5804      1     75     89      0.2979          0.6804E+06
   5805      1     75     90      0.3010          0.6804E+06
   5806      1     75     91      0.3042          0.6804E+06
   5807      1     75     92      0.3080          0.6804E+06
   5808      1     75     93      0.3110          0.6804E+06
   5809      1     75     94      0.3141          0.6804E+06
   5810      1     75     95      0.3169          0.6804E+06
   5811      1     75     96      0.3190          0.6804E+06
   5812      1     75     97      0.3210          0.6804E+06
   5813      1     75     98      0.3225          0.6804E+06
   5814      1     75     99      0.3240          0.6804E+06
   5815      1     75    100      0.3251          0.6804E+06
   5816      1     76      1       1.008          0.6804E+06
   5817      1     76      2      0.9897          0.6804E+06
   5818      1     76      3      0.9721          0.6804E+06
   5819      1     76      4      0.9540          0.6804E+06
   5820      1     76      5      0.9498          0.6804E+06
   5821      1     76      6      0.9446          0.6804E+06
   5822      1     76      7      0.9283          0.6804E+06
   5823      1     76      8      0.8926          0.6804E+06
   5824      1     76      9      0.8398          0.6804E+06
   5825      1     76     10      0.7654          0.6804E+06
   5826      1     76     11      0.6969          0.6804E+06
   5827      1     76     12      0.6210          0.6804E+06
   5828      1     76     13      0.5498          0.6804E+06
   5829      1     76     14      0.4940          0.6804E+06
   5830      1     76     15      0.4369          0.6804E+06
   5831      1     76     16      0.3905          0.6804E+06
   5832      1     76     17      0.3418          0.6804E+06
   5833      1     76     18      0.3015          0.6804E+06
   5834      1     76     19      0.2689          0.6804E+06
   5835      1     76     20      0.2341          0.6804E+06
   5836      1     76     21      0.2034          0.6804E+06
   5837      1     76     22      0.1810          0.6804E+06
   5838      1     76     23      0.1586          0.6804E+06
   5839      1     76     24      0.1410          0.6804E+06
   5840      1     76     25      0.1227          0.6804E+06
   5841      1     76     26      0.1048          0.6804E+06
   5842      1     76     27      0.9022E-01      0.6804E+06
   5843      1     76     28      0.7400E-01      0.6804E+06
   5844      1     76     29      0.5855E-01      0.6804E+06
   5845      1     76     30      0.4888E-01      0.6804E+06
   5846      1     76     31      0.4634E-01      0.6804E+06
   5847      1     76     32      0.4826E-01      0.6804E+06
   5848      1     76     33      0.5256E-01      0.6804E+06
   5849      1     76     34      0.5650E-01      0.6804E+06
   5850      1     76     35      0.5869E-01      0.6804E+06
   5851      1     76     36      0.5778E-01      0.6804E+06
   5852      1     76     37      0.5154E-01      0.6804E+06
   5853      1     76     38      0.4008E-01      0.6804E+06
   5854      1     76     39      0.1864E-01      0.6804E+06
   5855      1     76     40     -0.8048E-02      0.6804E+06
   5856      1     76     41     -0.6197E-01      0.6804E+06
   5857      1     76     42     -0.1574          0.6804E+06
   5858      1     76     43     -0.2362          0.6804E+06
   5859      1     76     44     -0.2399          0.6804E+06
   5860      1     76     45     -0.2224          0.6804E+06
   5861      1     76     46     -0.1938          0.6804E+06
   5862      1     76     47     -0.1576          0.6804E+06
   5863      1     76     48     -0.1292          0.6804E+06
   5864      1     76     49     -0.9142E-01      0.6804E+06
   5865      1     76     50     -0.8323E-01      0.6804E+06
   5866      1     76     51     -0.7015E-01      0.6804E+06
   5867      1     76     52     -0.8705E-01      0.6804E+06
   5868      1     76     53     -0.9422E-01      0.6804E+06
   5869      1     76     54     -0.6810E-01      0.6804E+06
   5870      1     76     55     -0.5578E-01      0.6804E+06
   5871      1     76     83      0.3105          0.6804E+06
   5872      1     76     84      0.3053          0.6804E+06
   5873      1     76     85      0.3009          0.6804E+06
   5874      1     76     86      0.2964          0.6804E+06
   5875      1     76     87      0.2937          0.6804E+06
   5876      1     76     88      0.2939          0.6804E+06
   5877      1     76     89      0.2966          0.6804E+06
   5878      1     76     90      0.3003          0.6804E+06
   5879      1     76     91      0.3038          0.6804E+06
   5880      1     76     92      0.3079          0.6804E+06
   5881      1     76     93      0.3109          0.6804E+06
   5882      1     76     94      0.3140          0.6804E+06
   5883      1     76     95      0.3165          0.6804E+06
   5884      1     76     96      0.3184          0.6804E+06
   5885      1     76     97      0.3200          0.6804E+06
   5886      1     76     98      0.3214          0.6804E+06
   5887      1     76     99      0.3228          0.6804E+06
   5888      1     76    100      0.3241          0.6804E+06
   5889      1     77      1       1.001          0.6804E+06
   5890      1     77      2      0.9839          0.6804E+06
   5891      1     77      3      0.9683          0.6804E+06
   5892      1     77      4      0.9532          0.6804E+06
   5893      1     77      5      0.9484          0.6804E+06
   5894      1     77      6      0.9436          0.6804E+06
   5895      1     77      7      0.9310          0.6804E+06
   5896      1     77      8      0.9031          0.6804E+06
   5897      1     77      9      0.8591          0.6804E+06
   5898      1     77     10      0.7963          0.6804E+06
   5899      1     77     11      0.7374          0.6804E+06
   5900      1     77     12      0.6697          0.6804E+06
   5901      1     77     13      0.6008          0.6804E+06
   5902      1     77     14      0.5437          0.6804E+06
   5903      1     77     15      0.4831          0.6804E+06
   5904      1     77     16      0.4330          0.6804E+06
   5905      1     77     17      0.3796          0.6804E+06
   5906      1     77     18      0.3320          0.6804E+06
   5907      1     77     19      0.2933          0.6804E+06
   5908      1     77     20      0.2531          0.6804E+06
   5909      1     77     21      0.2191          0.6804E+06
   5910      1     77     22      0.1943          0.6804E+06
   5911      1     77     23      0.1700          0.6804E+06
   5912      1     77     24      0.1513          0.6804E+06
   5913      1     77     25      0.1318          0.6804E+06
   5914      1     77     26      0.1117          0.6804E+06
   5915      1     77     27      0.9592E-01      0.6804E+06
   5916      1     77     28      0.7905E-01      0.6804E+06
   5917      1     77     29      0.6318E-01      0.6804E+06
   5918      1     77     30      0.5343E-01      0.6804E+06
   5919      1     77     31      0.4698E-01      0.6804E+06
   5920      1     77     32      0.4501E-01      0.6804E+06
   5921      1     77     33      0.4714E-01      0.6804E+06
   5922      1     77     34      0.5264E-01      0.6804E+06
   5923      1     77     35      0.5666E-01      0.6804E+06
   5924      1     77     36      0.5944E-01      0.6804E+06
   5925      1     77     37      0.5884E-01      0.6804E+06
   5926      1     77     38      0.5307E-01      0.6804E+06
   5927      1     77     39      0.3792E-01      0.6804E+06
   5928      1     77     40      0.1553E-01      0.6804E+06
   5929      1     77     41     -0.1409E-01      0.6804E+06
   5930      1     77     42     -0.6773E-01      0.6804E+06
   5931      1     77     43     -0.1318          0.6804E+06
   5932      1     77     44     -0.2024          0.6804E+06
   5933      1     77     45     -0.2205          0.6804E+06
   5934      1     77     46     -0.1914          0.6804E+06
   5935      1     77     47     -0.1720          0.6804E+06
   5936      1     77     48     -0.1567          0.6804E+06
   5937      1     77     49     -0.1345          0.6804E+06
   5938      1     77     50     -0.1181          0.6804E+06
   5939      1     77     51     -0.1069          0.6804E+06
   5940      1     77     52     -0.1091          0.6804E+06
   5941      1     77     53     -0.1079          0.6804E+06
   5942      1     77     54     -0.9501E-01      0.6804E+06
   5943      1     77     55     -0.1144          0.6804E+06
   5944      1     77     56     -0.9585E-01      0.6804E+06
   5945      1     77     57     -0.3554E-01      0.6804E+06
   5946      1     77     58      0.9135E-02      0.6804E+06
   5947      1     77     59      0.2871E-01      0.6804E+06
   5948      1     77     60      0.4551E-01      0.6804E+06
   5949      1     77     61      0.5443E-01      0.6804E+06
   5950      1     77     62      0.6121E-01      0.6804E+06
   5951      1     77     63      0.6980E-01      0.6804E+06
   5952      1     77     84      0.3073          0.6804E+06
   5953      1     77     85      0.3018          0.6804E+06
   5954      1     77     86      0.2957          0.6804E+06
   5955      1     77     87      0.2917          0.6804E+06
   5956      1     77     88      0.2919          0.6804E+06
   5957      1     77     89      0.2956          0.6804E+06
   5958      1     77     90      0.3000          0.6804E+06
   5959      1     77     91      0.3039          0.6804E+06
   5960      1     77     92      0.3081          0.6804E+06
   5961      1     77     93      0.3112          0.6804E+06
   5962      1     77     94      0.3141          0.6804E+06
   5963      1     77     95      0.3165          0.6804E+06
   5964      1     77     96      0.3179          0.6804E+06
   5965      1     77     97      0.3191          0.6804E+06
   5966      1     77     98      0.3202          0.6804E+06
   5967      1     77     99      0.3217          0.6804E+06
   5968      1     77    100      0.3232          0.6804E+06
   5969      1     78      1      0.9966          0.6804E+06
   5970      1     78      2      0.9815          0.6804E+06
   5971      1     78      3      0.9683          0.6804E+06
   5972      1     78      4      0.9558          0.6804E+06
   5973      1     78      5      0.9494          0.6804E+06
   5974      1     78      6      0.9436          0.6804E+06
   5975      1     78      7      0.9321          0.6804E+06
   5976      1     78      8      0.9085          0.6804E+06
   5977      1     78      9      0.8707          0.6804E+06
   5978      1     78     10      0.8162          0.6804E+06
   5979      1     78     11      0.7641          0.6804E+06
   5980      1     78     12      0.7026          0.6804E+06
   5981      1     78     13      0.6378          0.6804E+06
   5982      1     78     14      0.5822          0.6804E+06
   5983      1     78     15      0.5215          0.6804E+06
   5984      1     78     16      0.4701          0.6804E+06
   5985      1     78     17      0.4138          0.6804E+06
   5986      1     78     18      0.3609          0.6804E+06
   5987      1     78     19      0.3169          0.6804E+06
   5988      1     78     20      0.2711          0.6804E+06
   5989      1     78     21      0.2337          0.6804E+06
   5990      1     78     22      0.2077          0.6804E+06
   5991      1     78     23      0.1826          0.6804E+06
   5992      1     78     24      0.1633          0.6804E+06
   5993      1     78     25      0.1426          0.6804E+06
   5994      1     78     26      0.1209          0.6804E+06
   5995      1     78     27      0.1036          0.6804E+06
   5996      1     78     28      0.8531E-01      0.6804E+06
   5997      1     78     29      0.6839E-01      0.6804E+06
   5998      1     78     30      0.5733E-01      0.6804E+06
   5999      1     78     31      0.4869E-01      0.6804E+06
   6000      1     78     32      0.4477E-01      0.6804E+06
   6001      1     78     33      0.4533E-01      0.6804E+06
   6002      1     78     34      0.5114E-01      0.6804E+06
   6003      1     78     35      0.5588E-01      0.6804E+06
   6004      1     78     36      0.5993E-01      0.6804E+06
   6005      1     78     37      0.6158E-01      0.6804E+06
   6006      1     78     38      0.5956E-01      0.6804E+06
   6007      1     78     39      0.4993E-01      0.6804E+06
   6008      1     78     40      0.3469E-01      0.6804E+06
   6009      1     78     41      0.1050E-01      0.6804E+06
   6010      1     78     42     -0.1511E-01      0.6804E+06
   6011      1     78     43     -0.4454E-01      0.6804E+06
   6012      1     78     44     -0.1072          0.6804E+06
   6013      1     78     45     -0.1426          0.6804E+06
   6014      1     78     46     -0.1364          0.6804E+06
   6015      1     78     47     -0.1325          0.6804E+06
   6016      1     78     48     -0.1254          0.6804E+06
   6017      1     78     49     -0.1234          0.6804E+06
   6018      1     78     50     -0.1231          0.6804E+06
   6019      1     78     51     -0.1226          0.6804E+06
   6020      1     78     52     -0.1204          0.6804E+06
   6021      1     78     53     -0.1176          0.6804E+06
   6022      1     78     54     -0.1074          0.6804E+06
   6023      1     78     55     -0.7695E-01      0.6804E+06
   6024      1     78     56     -0.3721E-01      0.6804E+06
   6025      1     78     57      0.4687E-03      0.6804E+06
   6026      1     78     58      0.2799E-01      0.6804E+06
   6027      1     78     59      0.4653E-01      0.6804E+06
   6028      1     78     60      0.6140E-01      0.6804E+06
   6029      1     78     61      0.6920E-01      0.6804E+06
   6030      1     78     62      0.7526E-01      0.6804E+06
   6031      1     78     63      0.8481E-01      0.6804E+06
   6032      1     78     64      0.9788E-01      0.6804E+06
   6033      1     78     65      0.1202          0.6804E+06
   6034      1     78     66      0.1457          0.6804E+06
   6035      1     78     85      0.3031          0.6804E+06
   6036      1     78     86      0.2962          0.6804E+06
   6037      1     78     87      0.2915          0.6804E+06
   6038      1     78     88      0.2918          0.6804E+06
   6039      1     78     89      0.2960          0.6804E+06
   6040      1     78     90      0.3008          0.6804E+06
   6041      1     78     91      0.3047          0.6804E+06
   6042      1     78     92      0.3089          0.6804E+06
   6043      1     78     93      0.3119          0.6804E+06
   6044      1     78     94      0.3148          0.6804E+06
   6045      1     78     95      0.3169          0.6804E+06
   6046      1     78     96      0.3182          0.6804E+06
   6047      1     78     97      0.3189          0.6804E+06
   6048      1     78     98      0.3198          0.6804E+06
   6049      1     78     99      0.3214          0.6804E+06
   6050      1     78    100      0.3231          0.6804E+06
   6051      1     79      1      0.9930          0.6804E+06
   6052      1     79      2      0.9799          0.6804E+06
   6053      1     79      3      0.9688          0.6804E+06
   6054      1     79      4      0.9581          0.6804E+06
   6055      1     79      5      0.9501          0.6804E+06
   6056      1     79      6      0.9428          0.6804E+06
   6057      1     79      7      0.9308          0.6804E+06
   6058      1     79      8      0.9096          0.6804E+06
   6059      1     79      9      0.8781          0.6804E+06
   6060      1     79     10      0.8324          0.6804E+06
   6061      1     79     11      0.7875          0.6804E+06
   6062      1     79     12      0.7324          0.6804E+06
   6063      1     79     13      0.6734          0.6804E+06
   6064      1     79     14      0.6212          0.6804E+06
   6065      1     79     15      0.5627          0.6804E+06
   6066      1     79     16      0.5119          0.6804E+06
   6067      1     79     17      0.4540          0.6804E+06
   6068      1     79     18      0.3961          0.6804E+06
   6069      1     79     19      0.3456          0.6804E+06
   6070      1     79     20      0.2921          0.6804E+06
   6071      1     79     21      0.2510          0.6804E+06
   6072      1     79     22      0.2254          0.6804E+06
   6073      1     79     23      0.2012          0.6804E+06
   6074      1     79     24      0.1819          0.6804E+06
   6075      1     79     25      0.1598          0.6804E+06
   6076      1     79     26      0.1358          0.6804E+06
   6077      1     79     27      0.1158          0.6804E+06
   6078      1     79     28      0.9451E-01      0.6804E+06
   6079      1     79     29      0.7495E-01      0.6804E+06
   6080      1     79     30      0.6192E-01      0.6804E+06
   6081      1     79     31      0.5244E-01      0.6804E+06
   6082      1     79     32      0.4801E-01      0.6804E+06
   6083      1     79     33      0.4721E-01      0.6804E+06
   6084      1     79     34      0.5186E-01      0.6804E+06
   6085      1     79     35      0.5652E-01      0.6804E+06
   6086      1     79     36      0.6092E-01      0.6804E+06
   6087      1     79     37      0.6354E-01      0.6804E+06
   6088      1     79     38      0.6399E-01      0.6804E+06
   6089      1     79     39      0.5964E-01      0.6804E+06
   6090      1     79     40      0.5134E-01      0.6804E+06
   6091      1     79     41      0.3708E-01      0.6804E+06
   6092      1     79     42      0.1872E-01      0.6804E+06
   6093      1     79     43      0.2921E-02      0.6804E+06
   6094      1     79     44     -0.2848E-01      0.6804E+06
   6095      1     79     45     -0.4160E-01      0.6804E+06
   6096      1     79     46     -0.2580E-01      0.6804E+06
   6097      1     79     47     -0.2476E-01      0.6804E+06
   6098      1     79     48     -0.2898E-01      0.6804E+06
   6099      1     79     49     -0.3123E-01      0.6804E+06
   6100      1     79     50     -0.2816E-01      0.6804E+06
   6101      1     79     51     -0.2968E-01      0.6804E+06
   6102      1     79     52     -0.2876E-01      0.6804E+06
   6103      1     79     53     -0.2502E-01      0.6804E+06
   6104      1     79     54     -0.1882E-01      0.6804E+06
   6105      1     79     55     -0.8717E-02      0.6804E+06
   6106      1     79     56      0.8236E-02      0.6804E+06
   6107      1     79     57      0.3112E-01      0.6804E+06
   6108      1     79     58      0.5396E-01      0.6804E+06
   6109      1     79     59      0.6928E-01      0.6804E+06
   6110      1     79     60      0.8204E-01      0.6804E+06
   6111      1     79     61      0.8909E-01      0.6804E+06
   6112      1     79     62      0.9480E-01      0.6804E+06
   6113      1     79     63      0.1052          0.6804E+06
   6114      1     79     64      0.1229          0.6804E+06
   6115      1     79     65      0.1452          0.6804E+06
   6116      1     79     66      0.1663          0.6804E+06
   6117      1     79     67      0.1837          0.6804E+06
   6118      1     79     68      0.2034          0.6804E+06
   6119      1     79     86      0.3006          0.6804E+06
   6120      1     79     87      0.2967          0.6804E+06
   6121      1     79     88      0.2965          0.6804E+06
   6122      1     79     89      0.2994          0.6804E+06
   6123      1     79     90      0.3033          0.6804E+06
   6124      1     79     91      0.3068          0.6804E+06
   6125      1     79     92      0.3107          0.6804E+06
   6126      1     79     93      0.3136          0.6804E+06
   6127      1     79     94      0.3163          0.6804E+06
   6128      1     79     95      0.3184          0.6804E+06
   6129      1     79     96      0.3195          0.6804E+06
   6130      1     79     97      0.3201          0.6804E+06
   6131      1     79     98      0.3208          0.6804E+06
   6132      1     79     99      0.3223          0.6804E+06
   6133      1     79    100      0.3238          0.6804E+06
   6134      1     80      1      0.9899          0.6804E+06
   6135      1     80      2      0.9776          0.6804E+06
   6136      1     80      3      0.9673          0.6804E+06
   6137      1     80      4      0.9571          0.6804E+06
   6138      1     80      5      0.9485          0.6804E+06
   6139      1     80      6      0.9403          0.6804E+06
   6140      1     80      7      0.9277          0.6804E+06
   6141      1     80      8      0.9079          0.6804E+06
   6142      1     80      9      0.8820          0.6804E+06
   6143      1     80     10      0.8444          0.6804E+06
   6144      1     80     11      0.8063          0.6804E+06
   6145      1     80     12      0.7577          0.6804E+06
   6146      1     80     13      0.7044          0.6804E+06
   6147      1     80     14      0.6562          0.6804E+06
   6148      1     80     15      0.6013          0.6804E+06
   6149      1     80     16      0.5529          0.6804E+06
   6150      1     80     17      0.4964          0.6804E+06
   6151      1     80     18      0.4353          0.6804E+06
   6152      1     80     19      0.3786          0.6804E+06
   6153      1     80     20      0.3165          0.6804E+06
   6154      1     80     21      0.2724          0.6804E+06
   6155      1     80     22      0.2494          0.6804E+06
   6156      1     80     23      0.2278          0.6804E+06
   6157      1     80     24      0.2080          0.6804E+06
   6158      1     80     25      0.1835          0.6804E+06
   6159      1     80     26      0.1560          0.6804E+06
   6160      1     80     27      0.1323          0.6804E+06
   6161      1     80     28      0.1066          0.6804E+06
   6162      1     80     29      0.8268E-01      0.6804E+06
   6163      1     80     30      0.6861E-01      0.6804E+06
   6164      1     80     31      0.5917E-01      0.6804E+06
   6165      1     80     32      0.5480E-01      0.6804E+06
   6166      1     80     33      0.5309E-01      0.6804E+06
   6167      1     80     34      0.5534E-01      0.6804E+06
   6168      1     80     35      0.5882E-01      0.6804E+06
   6169      1     80     36      0.6308E-01      0.6804E+06
   6170      1     80     37      0.6638E-01      0.6804E+06
   6171      1     80     38      0.6723E-01      0.6804E+06
   6172      1     80     39      0.6600E-01      0.6804E+06
   6173      1     80     40      0.6264E-01      0.6804E+06
   6174      1     80     41      0.5548E-01      0.6804E+06
   6175      1     80     42      0.4323E-01      0.6804E+06
   6176      1     80     43      0.2925E-01      0.6804E+06
   6177      1     80     44      0.1918E-01      0.6804E+06
   6178      1     80     45      0.1882E-01      0.6804E+06
   6179      1     80     46      0.2445E-01      0.6804E+06
   6180      1     80     47      0.2457E-01      0.6804E+06
   6181      1     80     48      0.1905E-01      0.6804E+06
   6182      1     80     49      0.1358E-01      0.6804E+06
   6183      1     80     50      0.1938E-01      0.6804E+06
   6184      1     80     51      0.2135E-01      0.6804E+06
   6185      1     80     52      0.2242E-01      0.6804E+06
   6186      1     80     53      0.2361E-01      0.6804E+06
   6187      1     80     54      0.2176E-01      0.6804E+06
   6188      1     80     55      0.3291E-01      0.6804E+06
   6189      1     80     56      0.4648E-01      0.6804E+06
   6190      1     80     57      0.6447E-01      0.6804E+06
   6191      1     80     58      0.8213E-01      0.6804E+06
   6192      1     80     59      0.9504E-01      0.6804E+06
   6193      1     80     60      0.1072          0.6804E+06
   6194      1     80     61      0.1153          0.6804E+06
   6195      1     80     62      0.1229          0.6804E+06
   6196      1     80     63      0.1327          0.6804E+06
   6197      1     80     64      0.1487          0.6804E+06
   6198      1     80     65      0.1686          0.6804E+06
   6199      1     80     66      0.1877          0.6804E+06
   6200      1     80     67      0.2039          0.6804E+06
   6201      1     80     68      0.2225          0.6804E+06
   6202      1     80     69      0.2374          0.6804E+06
   6203      1     80     70      0.2532          0.6804E+06
   6204      1     80     71      0.2698          0.6804E+06
   6205      1     80     88      0.3024          0.6804E+06
   6206      1     80     89      0.3041          0.6804E+06
   6207      1     80     90      0.3070          0.6804E+06
   6208      1     80     91      0.3099          0.6804E+06
   6209      1     80     92      0.3132          0.6804E+06
   6210      1     80     93      0.3160          0.6804E+06
   6211      1     80     94      0.3187          0.6804E+06
   6212      1     80     95      0.3209          0.6804E+06
   6213      1     80     96      0.3222          0.6804E+06
   6214      1     80     97      0.3232          0.6804E+06
   6215      1     80     98      0.3240          0.6804E+06
   6216      1     80     99      0.3250          0.6804E+06
   6217      1     80    100      0.3257          0.6804E+06
   6218      1     81      1      0.9873          0.6804E+06
   6219      1     81      2      0.9748          0.6804E+06
   6220      1     81      3      0.9642          0.6804E+06
   6221      1     81      4      0.9540          0.6804E+06
   6222      1     81      5      0.9456          0.6804E+06
   6223      1     81      6      0.9378          0.6804E+06
   6224      1     81      7      0.9260          0.6804E+06
   6225      1     81      8      0.9082          0.6804E+06
   6226      1     81      9      0.8861          0.6804E+06
   6227      1     81     10      0.8542          0.6804E+06
   6228      1     81     11      0.8212          0.6804E+06
   6229      1     81     12      0.7781          0.6804E+06
   6230      1     81     13      0.7292          0.6804E+06
   6231      1     81     14      0.6841          0.6804E+06
   6232      1     81     15      0.6324          0.6804E+06
   6233      1     81     16      0.5867          0.6804E+06
   6234      1     81     17      0.5332          0.6804E+06
   6235      1     81     18      0.4722          0.6804E+06
   6236      1     81     19      0.4140          0.6804E+06
   6237      1     81     20      0.3499          0.6804E+06
   6238      1     81     21      0.3059          0.6804E+06
   6239      1     81     22      0.2829          0.6804E+06
   6240      1     81     23      0.2601          0.6804E+06
   6241      1     81     24      0.2379          0.6804E+06
   6242      1     81     25      0.2098          0.6804E+06
   6243      1     81     26      0.1785          0.6804E+06
   6244      1     81     27      0.1509          0.6804E+06
   6245      1     81     28      0.1198          0.6804E+06
   6246      1     81     29      0.9064E-01      0.6804E+06
   6247      1     81     30      0.7631E-01      0.6804E+06
   6248      1     81     31      0.6747E-01      0.6804E+06
   6249      1     81     32      0.6310E-01      0.6804E+06
   6250      1     81     33      0.6036E-01      0.6804E+06
   6251      1     81     34      0.6055E-01      0.6804E+06
   6252      1     81     35      0.6221E-01      0.6804E+06
   6253      1     81     36      0.6534E-01      0.6804E+06
   6254      1     81     37      0.6907E-01      0.6804E+06
   6255      1     81     38      0.7030E-01      0.6804E+06
   6256      1     81     39      0.6990E-01      0.6804E+06
   6257      1     81     40      0.6899E-01      0.6804E+06
   6258      1     81     41      0.6721E-01      0.6804E+06
   6259      1     81     42      0.6061E-01      0.6804E+06
   6260      1     81     43      0.5408E-01      0.6804E+06
   6261      1     81     44      0.5025E-01      0.6804E+06
   6262      1     81     45      0.5074E-01      0.6804E+06
   6263      1     81     46      0.5356E-01      0.6804E+06
   6264      1     81     47      0.5413E-01      0.6804E+06
   6265      1     81     48      0.5197E-01      0.6804E+06
   6266      1     81     49      0.4898E-01      0.6804E+06
   6267      1     81     50      0.5022E-01      0.6804E+06
   6268      1     81     51      0.5167E-01      0.6804E+06
   6269      1     81     52      0.5304E-01      0.6804E+06
   6270      1     81     53      0.5547E-01      0.6804E+06
   6271      1     81     54      0.6126E-01      0.6804E+06
   6272      1     81     55      0.6774E-01      0.6804E+06
   6273      1     81     56      0.7753E-01      0.6804E+06
   6274      1     81     57      0.9229E-01      0.6804E+06
   6275      1     81     58      0.1069          0.6804E+06
   6276      1     81     59      0.1191          0.6804E+06
   6277      1     81     60      0.1316          0.6804E+06
   6278      1     81     61      0.1408          0.6804E+06
   6279      1     81     62      0.1502          0.6804E+06
   6280      1     81     63      0.1612          0.6804E+06
   6281      1     81     64      0.1742          0.6804E+06
   6282      1     81     65      0.1903          0.6804E+06
   6283      1     81     66      0.2068          0.6804E+06
   6284      1     81     67      0.2209          0.6804E+06
   6285      1     81     68      0.2372          0.6804E+06
   6286      1     81     69      0.2505          0.6804E+06
   6287      1     81     70      0.2648          0.6804E+06
   6288      1     81     71      0.2791          0.6804E+06
   6289      1     81     72      0.2915          0.6804E+06
   6290      1     81     73      0.3039          0.6804E+06
   6291      1     81     89      0.3084          0.6804E+06
   6292      1     81     90      0.3106          0.6804E+06
   6293      1     81     91      0.3130          0.6804E+06
   6294      1     81     92      0.3159          0.6804E+06
   6295      1     81     93      0.3186          0.6804E+06
   6296      1     81     94      0.3213          0.6804E+06
   6297      1     81     95      0.3236          0.6804E+06
   6298      1     81     96      0.3252          0.6804E+06
   6299      1     81     97      0.3265          0.6804E+06
   6300      1     81     98      0.3273          0.6804E+06
   6301      1     81     99      0.3279          0.6804E+06
   6302      1     81    100      0.3280          0.6804E+06
   6303      1     82      1      0.9850          0.6804E+06
   6304      1     82      2      0.9718          0.6804E+06
   6305      1     82      3      0.9600          0.6804E+06
   6306      1     82      4      0.9491          0.6804E+06
   6307      1     82      5      0.9421          0.6804E+06
   6308      1     82      6      0.9359          0.6804E+06
   6309      1     82      7      0.9258          0.6804E+06
   6310      1     82      8      0.9106          0.6804E+06
   6311      1     82      9      0.8921          0.6804E+06
   6312      1     82     10      0.8655          0.6804E+06
   6313      1     82     11      0.8377          0.6804E+06
   6314      1     82     12      0.8005          0.6804E+06
   6315      1     82     13      0.7551          0.6804E+06
   6316      1     82     14      0.7127          0.6804E+06
   6317      1     82     15      0.6637          0.6804E+06
   6318      1     82     16      0.6205          0.6804E+06
   6319      1     82     17      0.5704          0.6804E+06
   6320      1     82     18      0.5144          0.6804E+06
   6321      1     82     19      0.4626          0.6804E+06
   6322      1     82     20      0.4066          0.6804E+06
   6323      1     82     21      0.3648          0.6804E+06
   6324      1     82     22      0.3372          0.6804E+06
   6325      1     82     23      0.3074          0.6804E+06
   6326      1     82     24      0.2799          0.6804E+06
   6327      1     82     25      0.2462          0.6804E+06
   6328      1     82     26      0.2099          0.6804E+06
   6329      1     82     27      0.1777          0.6804E+06
   6330      1     82     28      0.1418          0.6804E+06
   6331      1     82     29      0.1090          0.6804E+06
   6332      1     82     30      0.9295E-01      0.6804E+06
   6333      1     82     31      0.8270E-01      0.6804E+06
   6334      1     82     32      0.7687E-01      0.6804E+06
   6335      1     82     33      0.7207E-01      0.6804E+06
   6336      1     82     34      0.6935E-01      0.6804E+06
   6337      1     82     35      0.6826E-01      0.6804E+06
   6338      1     82     36      0.6823E-01      0.6804E+06
   6339      1     82     37      0.6906E-01      0.6804E+06
   6340      1     82     38      0.6936E-01      0.6804E+06
   6341      1     82     39      0.7038E-01      0.6804E+06
   6342      1     82     40      0.7195E-01      0.6804E+06
   6343      1     82     41      0.7384E-01      0.6804E+06
   6344      1     82     42      0.7322E-01      0.6804E+06
   6345      1     82     43      0.7371E-01      0.6804E+06
   6346      1     82     44      0.7529E-01      0.6804E+06
   6347      1     82     45      0.7636E-01      0.6804E+06
   6348      1     82     46      0.7753E-01      0.6804E+06
   6349      1     82     47      0.7820E-01      0.6804E+06
   6350      1     82     48      0.7750E-01      0.6804E+06
   6351      1     82     49      0.7578E-01      0.6804E+06
   6352      1     82     50      0.7534E-01      0.6804E+06
   6353      1     82     51      0.7593E-01      0.6804E+06
   6354      1     82     52      0.7831E-01      0.6804E+06
   6355      1     82     53      0.8291E-01      0.6804E+06
   6356      1     82     54      0.9131E-01      0.6804E+06
   6357      1     82     55      0.9968E-01      0.6804E+06
   6358      1     82     56      0.1089          0.6804E+06
   6359      1     82     57      0.1216          0.6804E+06
   6360      1     82     58      0.1348          0.6804E+06
   6361      1     82     59      0.1470          0.6804E+06
   6362      1     82     60      0.1603          0.6804E+06
   6363      1     82     61      0.1704          0.6804E+06
   6364      1     82     62      0.1810          0.6804E+06
   6365      1     82     63      0.1926          0.6804E+06
   6366      1     82     64      0.2028          0.6804E+06
   6367      1     82     65      0.2148          0.6804E+06
   6368      1     82     66      0.2283          0.6804E+06
   6369      1     82     67      0.2402          0.6804E+06
   6370      1     82     68      0.2534          0.6804E+06
   6371      1     82     69      0.2645          0.6804E+06
   6372      1     82     70      0.2771          0.6804E+06
   6373      1     82     71      0.2900          0.6804E+06
   6374      1     82     72      0.3005          0.6804E+06
   6375      1     82     73      0.3111          0.6804E+06
   6376      1     82     74      0.3200          0.6804E+06
   6377      1     82     75      0.3267          0.6804E+06
   6378      1     82     91      0.3166          0.6804E+06
   6379      1     82     92      0.3193          0.6804E+06
   6380      1     82     93      0.3217          0.6804E+06
   6381      1     82     94      0.3244          0.6804E+06
   6382      1     82     95      0.3270          0.6804E+06
   6383      1     82     96      0.3290          0.6804E+06
   6384      1     82     97      0.3307          0.6804E+06
   6385      1     82     98      0.3315          0.6804E+06
   6386      1     82     99      0.3317          0.6804E+06
   6387      1     82    100      0.3309          0.6804E+06
   6388      1     83      1      0.9840          0.6804E+06
   6389      1     83      2      0.9704          0.6804E+06
   6390      1     83      3      0.9581          0.6804E+06
   6391      1     83      4      0.9471          0.6804E+06
   6392      1     83      5      0.9411          0.6804E+06
   6393      1     83      6      0.9360          0.6804E+06
   6394      1     83      7      0.9273          0.6804E+06
   6395      1     83      8      0.9141          0.6804E+06
   6396      1     83      9      0.8983          0.6804E+06
   6397      1     83     10      0.8753          0.6804E+06
   6398      1     83     11      0.8507          0.6804E+06
   6399      1     83     12      0.8168          0.6804E+06
   6400      1     83     13      0.7746          0.6804E+06
   6401      1     83     14      0.7343          0.6804E+06
   6402      1     83     15      0.6870          0.6804E+06
   6403      1     83     16      0.6451          0.6804E+06
   6404      1     83     17      0.5973          0.6804E+06
   6405      1     83     18      0.5485          0.6804E+06
   6406      1     83     19      0.5057          0.6804E+06
   6407      1     83     20      0.4602          0.6804E+06
   6408      1     83     21      0.4227          0.6804E+06
   6409      1     83     22      0.3923          0.6804E+06
   6410      1     83     23      0.3560          0.6804E+06
   6411      1     83     24      0.3226          0.6804E+06
   6412      1     83     25      0.2831          0.6804E+06
   6413      1     83     26      0.2420          0.6804E+06
   6414      1     83     27      0.2066          0.6804E+06
   6415      1     83     28      0.1686          0.6804E+06
   6416      1     83     29      0.1354          0.6804E+06
   6417      1     83     30      0.1159          0.6804E+06
   6418      1     83     31      0.1014          0.6804E+06
   6419      1     83     32      0.9273E-01      0.6804E+06
   6420      1     83     33      0.8520E-01      0.6804E+06
   6421      1     83     34      0.7963E-01      0.6804E+06
   6422      1     83     35      0.7584E-01      0.6804E+06
   6423      1     83     36      0.7254E-01      0.6804E+06
   6424      1     83     37      0.7060E-01      0.6804E+06
   6425      1     83     38      0.7009E-01      0.6804E+06
   6426      1     83     39      0.7160E-01      0.6804E+06
   6427      1     83     40      0.7453E-01      0.6804E+06
   6428      1     83     41      0.7913E-01      0.6804E+06
   6429      1     83     42      0.8310E-01      0.6804E+06
   6430      1     83     43      0.8644E-01      0.6804E+06
   6431      1     83     44      0.8984E-01      0.6804E+06
   6432      1     83     45      0.9203E-01      0.6804E+06
   6433      1     83     46      0.9308E-01      0.6804E+06
   6434      1     83     47      0.9360E-01      0.6804E+06
   6435      1     83     48      0.9308E-01      0.6804E+06
   6436      1     83     49      0.9166E-01      0.6804E+06
   6437      1     83     50      0.9102E-01      0.6804E+06
   6438      1     83     51      0.9196E-01      0.6804E+06
   6439      1     83     52      0.9631E-01      0.6804E+06
   6440      1     83     53      0.1034          0.6804E+06
   6441      1     83     54      0.1127          0.6804E+06
   6442      1     83     55      0.1222          0.6804E+06
   6443      1     83     56      0.1318          0.6804E+06
   6444      1     83     57      0.1448          0.6804E+06
   6445      1     83     58      0.1583          0.6804E+06
   6446      1     83     59      0.1710          0.6804E+06
   6447      1     83     60      0.1849          0.6804E+06
   6448      1     83     61      0.1956          0.6804E+06
   6449      1     83     62      0.2064          0.6804E+06
   6450      1     83     63      0.2176          0.6804E+06
   6451      1     83     64      0.2264          0.6804E+06
   6452      1     83     65      0.2358          0.6804E+06
   6453      1     83     66      0.2462          0.6804E+06
   6454      1     83     67      0.2563          0.6804E+06
   6455      1     83     68      0.2671          0.6804E+06
   6456      1     83     69      0.2763          0.6804E+06
   6457      1     83     70      0.2870          0.6804E+06
   6458      1     83     71      0.2986          0.6804E+06
   6459      1     83     72      0.3077          0.6804E+06
   6460      1     83     73      0.3169          0.6804E+06
   6461      1     83     74      0.3249          0.6804E+06
   6462      1     83     75      0.3310          0.6804E+06
   6463      1     83     76      0.3361          0.6804E+06
   6464      1     83     77      0.3381          0.6804E+06
   6465      1     83     93      0.3245          0.6804E+06
   6466      1     83     94      0.3272          0.6804E+06
   6467      1     83     95      0.3299          0.6804E+06
   6468      1     83     96      0.3322          0.6804E+06
   6469      1     83     97      0.3344          0.6804E+06
   6470      1     83     98      0.3353          0.6804E+06
   6471      1     83     99      0.3350          0.6804E+06
   6472      1     83    100      0.3336          0.6804E+06
   6473      1     84      1      0.9842          0.6804E+06
   6474      1     84      2      0.9714          0.6804E+06
   6475      1     84      3      0.9601          0.6804E+06
   6476      1     84      4      0.9499          0.6804E+06
   6477      1     84      5      0.9436          0.6804E+06
   6478      1     84      6      0.9385          0.6804E+06
   6479      1     84      7      0.9306          0.6804E+06
   6480      1     84      8      0.9193          0.6804E+06
   6481      1     84      9      0.9060          0.6804E+06
   6482      1     84     10      0.8864          0.6804E+06
   6483      1     84     11      0.8648          0.6804E+06
   6484      1     84     12      0.8339          0.6804E+06
   6485      1     84     13      0.7947          0.6804E+06
   6486      1     84     14      0.7563          0.6804E+06
   6487      1     84     15      0.7101          0.6804E+06
   6488      1     84     16      0.6693          0.6804E+06
   6489      1     84     17      0.6246          0.6804E+06
   6490      1     84     18      0.5839          0.6804E+06
   6491      1     84     19      0.5514          0.6804E+06
   6492      1     84     20      0.5184          0.6804E+06
   6493      1     84     21      0.4889          0.6804E+06
   6494      1     84     22      0.4576          0.6804E+06
   6495      1     84     23      0.4144          0.6804E+06
   6496      1     84     24      0.3732          0.6804E+06
   6497      1     84     25      0.3265          0.6804E+06
   6498      1     84     26      0.2805          0.6804E+06
   6499      1     84     27      0.2423          0.6804E+06
   6500      1     84     28      0.2028          0.6804E+06
   6501      1     84     29      0.1690          0.6804E+06
   6502      1     84     30      0.1462          0.6804E+06
   6503      1     84     31      0.1270          0.6804E+06
   6504      1     84     32      0.1144          0.6804E+06
   6505      1     84     33      0.1032          0.6804E+06
   6506      1     84     34      0.9457E-01      0.6804E+06
   6507      1     84     35      0.8780E-01      0.6804E+06
   6508      1     84     36      0.8105E-01      0.6804E+06
   6509      1     84     37      0.7706E-01      0.6804E+06
   6510      1     84     38      0.7524E-01      0.6804E+06
   6511      1     84     39      0.7590E-01      0.6804E+06
   6512      1     84     40      0.7921E-01      0.6804E+06
   6513      1     84     41      0.8587E-01      0.6804E+06
   6514      1     84     42      0.9323E-01      0.6804E+06
   6515      1     84     43      0.9840E-01      0.6804E+06
   6516      1     84     44      0.1035          0.6804E+06
   6517      1     84     45      0.1076          0.6804E+06
   6518      1     84     46      0.1095          0.6804E+06
   6519      1     84     47      0.1103          0.6804E+06
   6520      1     84     48      0.1097          0.6804E+06
   6521      1     84     49      0.1079          0.6804E+06
   6522      1     84     50      0.1068          0.6804E+06
   6523      1     84     51      0.1084          0.6804E+06
   6524      1     84     52      0.1140          0.6804E+06
   6525      1     84     53      0.1223          0.6804E+06
   6526      1     84     54      0.1333          0.6804E+06
   6527      1     84     55      0.1446          0.6804E+06
   6528      1     84     56      0.1556          0.6804E+06
   6529      1     84     57      0.1696          0.6804E+06
   6530      1     84     58      0.1837          0.6804E+06
   6531      1     84     59      0.1967          0.6804E+06
   6532      1     84     60      0.2114          0.6804E+06
   6533      1     84     61      0.2228          0.6804E+06
   6534      1     84     62      0.2339          0.6804E+06
   6535      1     84     63      0.2447          0.6804E+06
   6536      1     84     64      0.2522          0.6804E+06
   6537      1     84     65      0.2589          0.6804E+06
   6538      1     84     66      0.2654          0.6804E+06
   6539      1     84     67      0.2731          0.6804E+06
   6540      1     84     68      0.2817          0.6804E+06
   6541      1     84     69      0.2889          0.6804E+06
   6542      1     84     70      0.2972          0.6804E+06
   6543      1     84     71      0.3072          0.6804E+06
   6544      1     84     72      0.3147          0.6804E+06
   6545      1     84     73      0.3223          0.6804E+06
   6546      1     84     74      0.3292          0.6804E+06
   6547      1     84     75      0.3346          0.6804E+06
   6548      1     84     76      0.3388          0.6804E+06
   6549      1     84     77      0.3398          0.6804E+06
   6550      1     84     78      0.3385          0.6804E+06
   6551      1     84     79      0.3366          0.6804E+06
   6552      1     84     80      0.3348          0.6804E+06
   6553      1     84     94      0.3300          0.6804E+06
   6554      1     84     95      0.3329          0.6804E+06
   6555      1     84     96      0.3355          0.6804E+06
   6556      1     84     97      0.3383          0.6804E+06
   6557      1     84     98      0.3393          0.6804E+06
   6558      1     84     99      0.3385          0.6804E+06
   6559      1     84    100      0.3364          0.6804E+06
   6560      1     85      1      0.9851          0.6804E+06
   6561      1     85      2      0.9739          0.6804E+06
   6562      1     85      3      0.9643          0.6804E+06
   6563      1     85      4      0.9552          0.6804E+06
   6564      1     85      5      0.9484          0.6804E+06
   6565      1     85      6      0.9428          0.6804E+06
   6566      1     85      7      0.9352          0.6804E+06
   6567      1     85      8      0.9253          0.6804E+06
   6568      1     85      9      0.9141          0.6804E+06
   6569      1     85     10      0.8975          0.6804E+06
   6570      1     85     11      0.8790          0.6804E+06
   6571      1     85     12      0.8511          0.6804E+06
   6572      1     85     13      0.8140          0.6804E+06
   6573      1     85     14      0.7764          0.6804E+06
   6574      1     85     15      0.7303          0.6804E+06
   6575      1     85     16      0.6897          0.6804E+06
   6576      1     85     17      0.6478          0.6804E+06
   6577      1     85     18      0.6139          0.6804E+06
   6578      1     85     19      0.5904          0.6804E+06
   6579      1     85     20      0.5688          0.6804E+06
   6580      1     85     21      0.5502          0.6804E+06
   6581      1     85     22      0.5192          0.6804E+06
   6582      1     85     23      0.4683          0.6804E+06
   6583      1     85     24      0.4203          0.6804E+06
   6584      1     85     25      0.3680          0.6804E+06
   6585      1     85     26      0.3183          0.6804E+06
   6586      1     85     27      0.2781          0.6804E+06
   6587      1     85     28      0.2371          0.6804E+06
   6588      1     85     29      0.2016          0.6804E+06
   6589      1     85     30      0.1764          0.6804E+06
   6590      1     85     31      0.1540          0.6804E+06
   6591      1     85     32      0.1384          0.6804E+06
   6592      1     85     33      0.1238          0.6804E+06
   6593      1     85     34      0.1125          0.6804E+06
   6594      1     85     35      0.1035          0.6804E+06
   6595      1     85     36      0.9425E-01      0.6804E+06
   6596      1     85     37      0.8752E-01      0.6804E+06
   6597      1     85     38      0.8307E-01      0.6804E+06
   6598      1     85     39      0.8269E-01      0.6804E+06
   6599      1     85     40      0.8671E-01      0.6804E+06
   6600      1     85     41      0.9372E-01      0.6804E+06
   6601      1     85     42      0.1019          0.6804E+06
   6602      1     85     43      0.1097          0.6804E+06
   6603      1     85     44      0.1181          0.6804E+06
   6604      1     85     45      0.1238          0.6804E+06
   6605      1     85     46      0.1266          0.6804E+06
   6606      1     85     47      0.1277          0.6804E+06
   6607      1     85     48      0.1268          0.6804E+06
   6608      1     85     49      0.1242          0.6804E+06
   6609      1     85     50      0.1220          0.6804E+06
   6610      1     85     51      0.1240          0.6804E+06
   6611      1     85     52      0.1306          0.6804E+06
   6612      1     85     53      0.1402          0.6804E+06
   6613      1     85     54      0.1527          0.6804E+06
   6614      1     85     55      0.1658          0.6804E+06
   6615      1     85     56      0.1781          0.6804E+06
   6616      1     85     57      0.1930          0.6804E+06
   6617      1     85     58      0.2078          0.6804E+06
   6618      1     85     59      0.2212          0.6804E+06
   6619      1     85     60      0.2367          0.6804E+06
   6620      1     85     61      0.2491          0.6804E+06
   6621      1     85     62      0.2610          0.6804E+06
   6622      1     85     63      0.2708          0.6804E+06
   6623      1     85     64      0.2763          0.6804E+06
   6624      1     85     65      0.2798          0.6804E+06
   6625      1     85     66      0.2834          0.6804E+06
   6626      1     85     67      0.2877          0.6804E+06
   6627      1     85     68      0.2941          0.6804E+06
   6628      1     85     69      0.3002          0.6804E+06
   6629      1     85     70      0.3069          0.6804E+06
   6630      1     85     71      0.3145          0.6804E+06
   6631      1     85     72      0.3201          0.6804E+06
   6632      1     85     73      0.3260          0.6804E+06
   6633      1     85     74      0.3313          0.6804E+06
   6634      1     85     75      0.3356          0.6804E+06
   6635      1     85     76      0.3386          0.6804E+06
   6636      1     85     77      0.3392          0.6804E+06
   6637      1     85     78      0.3377          0.6804E+06
   6638      1     85     79      0.3360          0.6804E+06
   6639      1     85     80      0.3344          0.6804E+06
   6640      1     85     81      0.3324          0.6804E+06
   6641      1     85     82      0.3301          0.6804E+06
   6642      1     85     95      0.3351          0.6804E+06
   6643      1     85     96      0.3376          0.6804E+06
   6644      1     85     97      0.3401          0.6804E+06
   6645      1     85     98      0.3411          0.6804E+06
   6646      1     85     99      0.3404          0.6804E+06
   6647      1     85    100      0.3384          0.6804E+06
   6648      1     86      1      0.9855          0.6804E+06
   6649      1     86      2      0.9757          0.6804E+06
   6650      1     86      3      0.9674          0.6804E+06
   6651      1     86      4      0.9592          0.6804E+06
   6652      1     86      5      0.9524          0.6804E+06
   6653      1     86      6      0.9466          0.6804E+06
   6654      1     86      7      0.9393          0.6804E+06
   6655      1     86      8      0.9304          0.6804E+06
   6656      1     86      9      0.9207          0.6804E+06
   6657      1     86     10      0.9070          0.6804E+06
   6658      1     86     11      0.8916          0.6804E+06
   6659      1     86     12      0.8672          0.6804E+06
   6660      1     86     13      0.8310          0.6804E+06
   6661      1     86     14      0.7931          0.6804E+06
   6662      1     86     15      0.7462          0.6804E+06
   6663      1     86     16      0.7049          0.6804E+06
   6664      1     86     17      0.6641          0.6804E+06
   6665      1     86     18      0.6349          0.6804E+06
   6666      1     86     19      0.6180          0.6804E+06
   6667      1     86     20      0.6034          0.6804E+06
   6668      1     86     21      0.5916          0.6804E+06
   6669      1     86     22      0.5612          0.6804E+06
   6670      1     86     23      0.5063          0.6804E+06
   6671      1     86     24      0.4556          0.6804E+06
   6672      1     86     25      0.4009          0.6804E+06
   6673      1     86     26      0.3494          0.6804E+06
   6674      1     86     27      0.3078          0.6804E+06
   6675      1     86     28      0.2656          0.6804E+06
   6676      1     86     29      0.2287          0.6804E+06
   6677      1     86     30      0.2021          0.6804E+06
   6678      1     86     31      0.1776          0.6804E+06
   6679      1     86     32      0.1602          0.6804E+06
   6680      1     86     33      0.1437          0.6804E+06
   6681      1     86     34      0.1306          0.6804E+06
   6682      1     86     35      0.1205          0.6804E+06
   6683      1     86     36      0.1101          0.6804E+06
   6684      1     86     37      0.1013          0.6804E+06
   6685      1     86     38      0.9466E-01      0.6804E+06
   6686      1     86     39      0.9319E-01      0.6804E+06
   6687      1     86     40      0.9788E-01      0.6804E+06
   6688      1     86     41      0.1051          0.6804E+06
   6689      1     86     42      0.1140          0.6804E+06
   6690      1     86     43      0.1231          0.6804E+06
   6691      1     86     44      0.1331          0.6804E+06
   6692      1     86     45      0.1390          0.6804E+06
   6693      1     86     46      0.1419          0.6804E+06
   6694      1     86     47      0.1431          0.6804E+06
   6695      1     86     48      0.1420          0.6804E+06
   6696      1     86     49      0.1384          0.6804E+06
   6697      1     86     50      0.1353          0.6804E+06
   6698      1     86     51      0.1373          0.6804E+06
   6699      1     86     52      0.1452          0.6804E+06
   6700      1     86     53      0.1563          0.6804E+06
   6701      1     86     54      0.1700          0.6804E+06
   6702      1     86     55      0.1844          0.6804E+06
   6703      1     86     56      0.1973          0.6804E+06
   6704      1     86     57      0.2125          0.6804E+06
   6705      1     86     58      0.2274          0.6804E+06
   6706      1     86     59      0.2409          0.6804E+06
   6707      1     86     60      0.2565          0.6804E+06
   6708      1     86     61      0.2695          0.6804E+06
   6709      1     86     62      0.2835          0.6804E+06
   6710      1     86     63      0.2917          0.6804E+06
   6711      1     86     64      0.2942          0.6804E+06
   6712      1     86     65      0.2942          0.6804E+06
   6713      1     86     66      0.2955          0.6804E+06
   6714      1     86     67      0.2987          0.6804E+06
   6715      1     86     68      0.3035          0.6804E+06
   6716      1     86     69      0.3083          0.6804E+06
   6717      1     86     70      0.3140          0.6804E+06
   6718      1     86     71      0.3193          0.6804E+06
   6719      1     86     72      0.3234          0.6804E+06
   6720      1     86     73      0.3277          0.6804E+06
   6721      1     86     74      0.3315          0.6804E+06
   6722      1     86     75      0.3342          0.6804E+06
   6723      1     86     76      0.3360          0.6804E+06
   6724      1     86     77      0.3364          0.6804E+06
   6725      1     86     78      0.3358          0.6804E+06
   6726      1     86     79      0.3346          0.6804E+06
   6727      1     86     80      0.3333          0.6804E+06
   6728      1     86     81      0.3318          0.6804E+06
   6729      1     86     82      0.3300          0.6804E+06
   6730      1     86     83      0.3282          0.6804E+06
   6731      1     86     84      0.3265          0.6804E+06
   6732      1     87      1      0.9846          0.6804E+06
   6733      1     87      2      0.9765          0.6804E+06
   6734      1     87      3      0.9696          0.6804E+06
   6735      1     87      4      0.9623          0.6804E+06
   6736      1     87      5      0.9557          0.6804E+06
   6737      1     87      6      0.9500          0.6804E+06
   6738      1     87      7      0.9431          0.6804E+06
   6739      1     87      8      0.9350          0.6804E+06
   6740      1     87      9      0.9266          0.6804E+06
   6741      1     87     10      0.9151          0.6804E+06
   6742      1     87     11      0.9029          0.6804E+06
   6743      1     87     12      0.8834          0.6804E+06
   6744      1     87     13      0.8484          0.6804E+06
   6745      1     87     14      0.8102          0.6804E+06
   6746      1     87     15      0.7640          0.6804E+06
   6747      1     87     16      0.7228          0.6804E+06
   6748      1     87     17      0.6824          0.6804E+06
   6749      1     87     18      0.6561          0.6804E+06
   6750      1     87     19      0.6434          0.6804E+06
   6751      1     87     20      0.6288          0.6804E+06
   6752      1     87     21      0.6099          0.6804E+06
   6753      1     87     22      0.5807          0.6804E+06
   6754      1     87     23      0.5333          0.6804E+06
   6755      1     87     24      0.4860          0.6804E+06
   6756      1     87     25      0.4325          0.6804E+06
   6757      1     87     26      0.3809          0.6804E+06
   6758      1     87     27      0.3388          0.6804E+06
   6759      1     87     28      0.2957          0.6804E+06
   6760      1     87     29      0.2578          0.6804E+06
   6761      1     87     30      0.2300          0.6804E+06
   6762      1     87     31      0.2041          0.6804E+06
   6763      1     87     32      0.1854          0.6804E+06
   6764      1     87     33      0.1678          0.6804E+06
   6765      1     87     34      0.1536          0.6804E+06
   6766      1     87     35      0.1427          0.6804E+06
   6767      1     87     36      0.1319          0.6804E+06
   6768      1     87     37      0.1232          0.6804E+06
   6769      1     87     38      0.1179          0.6804E+06
   6770      1     87     39      0.1161          0.6804E+06
   6771      1     87     40      0.1185          0.6804E+06
   6772      1     87     41      0.1230          0.6804E+06
   6773      1     87     42      0.1327          0.6804E+06
   6774      1     87     43      0.1428          0.6804E+06
   6775      1     87     44      0.1536          0.6804E+06
   6776      1     87     45      0.1606          0.6804E+06
   6777      1     87     46      0.1636          0.6804E+06
   6778      1     87     47      0.1645          0.6804E+06
   6779      1     87     48      0.1623          0.6804E+06
   6780      1     87     49      0.1561          0.6804E+06
   6781      1     87     50      0.1515          0.6804E+06
   6782      1     87     51      0.1535          0.6804E+06
   6783      1     87     52      0.1623          0.6804E+06
   6784      1     87     53      0.1751          0.6804E+06
   6785      1     87     54      0.1906          0.6804E+06
   6786      1     87     55      0.2061          0.6804E+06
   6787      1     87     56      0.2192          0.6804E+06
   6788      1     87     57      0.2333          0.6804E+06
   6789      1     87     58      0.2476          0.6804E+06
   6790      1     87     59      0.2603          0.6804E+06
   6791      1     87     60      0.2750          0.6804E+06
   6792      1     87     61      0.2880          0.6804E+06
   6793      1     87     62      0.3038          0.6804E+06
   6794      1     87     63      0.3098          0.6804E+06
   6795      1     87     64      0.3096          0.6804E+06
   6796      1     87     65      0.3069          0.6804E+06
   6797      1     87     66      0.3062          0.6804E+06
   6798      1     87     67      0.3083          0.6804E+06
   6799      1     87     68      0.3114          0.6804E+06
   6800      1     87     69      0.3149          0.6804E+06
   6801      1     87     70      0.3202          0.6804E+06
   6802      1     87     71      0.3235          0.6804E+06
   6803      1     87     72      0.3261          0.6804E+06
   6804      1     87     73      0.3287          0.6804E+06
   6805      1     87     74      0.3304          0.6804E+06
   6806      1     87     75      0.3316          0.6804E+06
   6807      1     87     76      0.3324          0.6804E+06
   6808      1     87     77      0.3326          0.6804E+06
   6809      1     87     78      0.3327          0.6804E+06
   6810      1     87     79      0.3323          0.6804E+06
   6811      1     87     80      0.3316          0.6804E+06
   6812      1     87     81      0.3306          0.6804E+06
   6813      1     87     82      0.3294          0.6804E+06
   6814      1     87     83      0.3280          0.6804E+06
   6815      1     87     84      0.3268          0.6804E+06
   6816      1     87     85      0.3259          0.6804E+06
   6817      1     87     86      0.3252          0.6804E+06
   6818      1     88      1      0.9821          0.6804E+06
   6819      1     88      2      0.9755          0.6804E+06
   6820      1     88      3      0.9698          0.6804E+06
   6821      1     88      4      0.9636          0.6804E+06
   6822      1     88      5      0.9574          0.6804E+06
   6823      1     88      6      0.9519          0.6804E+06
   6824      1     88      7      0.9453          0.6804E+06
   6825      1     88      8      0.9377          0.6804E+06
   6826      1     88      9      0.9298          0.6804E+06
   6827      1     88     10      0.9193          0.6804E+06
   6828      1     88     11      0.9080          0.6804E+06
   6829      1     88     12      0.8898          0.6804E+06
   6830      1     88     13      0.8582          0.6804E+06
   6831      1     88     14      0.8239          0.6804E+06
   6832      1     88     15      0.7824          0.6804E+06
   6833      1     88     16      0.7458          0.6804E+06
   6834      1     88     17      0.7097          0.6804E+06
   6835      1     88     18      0.6842          0.6804E+06
   6836      1     88     19      0.6688          0.6804E+06
   6837      1     88     20      0.6502          0.6804E+06
   6838      1     88     21      0.6260          0.6804E+06
   6839      1     88     22      0.5967          0.6804E+06
   6840      1     88     23      0.5534          0.6804E+06
   6841      1     88     24      0.5099          0.6804E+06
   6842      1     88     25      0.4586          0.6804E+06
   6843      1     88     26      0.4080          0.6804E+06
   6844      1     88     27      0.3659          0.6804E+06
   6845      1     88     28      0.3223          0.6804E+06
   6846      1     88     29      0.2838          0.6804E+06
   6847      1     88     30      0.2554          0.6804E+06
   6848      1     88     31      0.2291          0.6804E+06
   6849      1     88     32      0.2103          0.6804E+06
   6850      1     88     33      0.1926          0.6804E+06
   6851      1     88     34      0.1782          0.6804E+06
   6852      1     88     35      0.1674          0.6804E+06
   6853      1     88     36      0.1573          0.6804E+06
   6854      1     88     37      0.1509          0.6804E+06
   6855      1     88     38      0.1495          0.6804E+06
   6856      1     88     39      0.1487          0.6804E+06
   6857      1     88     40      0.1479          0.6804E+06
   6858      1     88     41      0.1499          0.6804E+06
   6859      1     88     42      0.1588          0.6804E+06
   6860      1     88     43      0.1684          0.6804E+06
   6861      1     88     44      0.1789          0.6804E+06
   6862      1     88     45      0.1866          0.6804E+06
   6863      1     88     46      0.1898          0.6804E+06
   6864      1     88     47      0.1899          0.6804E+06
   6865      1     88     48      0.1867          0.6804E+06
   6866      1     88     49      0.1810          0.6804E+06
   6867      1     88     50      0.1754          0.6804E+06
   6868      1     88     51      0.1767          0.6804E+06
   6869      1     88     52      0.1854          0.6804E+06
   6870      1     88     53      0.1985          0.6804E+06
   6871      1     88     54      0.2139          0.6804E+06
   6872      1     88     55      0.2281          0.6804E+06
   6873      1     88     56      0.2402          0.6804E+06
   6874      1     88     57      0.2541          0.6804E+06
   6875      1     88     58      0.2660          0.6804E+06
   6876      1     88     59      0.2763          0.6804E+06
   6877      1     88     60      0.2887          0.6804E+06
   6878      1     88     61      0.2998          0.6804E+06
   6879      1     88     62      0.3118          0.6804E+06
   6880      1     88     63      0.3173          0.6804E+06
   6881      1     88     64      0.3178          0.6804E+06
   6882      1     88     65      0.3156          0.6804E+06
   6883      1     88     66      0.3146          0.6804E+06
   6884      1     88     67      0.3147          0.6804E+06
   6885      1     88     68      0.3162          0.6804E+06
   6886      1     88     69      0.3191          0.6804E+06
   6887      1     88     70      0.3238          0.6804E+06
   6888      1     88     71      0.3264          0.6804E+06
   6889      1     88     72      0.3279          0.6804E+06
   6890      1     88     73      0.3289          0.6804E+06
   6891      1     88     74      0.3288          0.6804E+06
   6892      1     88     75      0.3285          0.6804E+06
   6893      1     88     76      0.3284          0.6804E+06
   6894      1     88     77      0.3286          0.6804E+06
   6895      1     88     78      0.3293          0.6804E+06
   6896      1     88     79      0.3297          0.6804E+06
   6897      1     88     80      0.3296          0.6804E+06
   6898      1     88     81      0.3292          0.6804E+06
   6899      1     88     82      0.3285          0.6804E+06
   6900      1     88     83      0.3275          0.6804E+06
   6901      1     88     84      0.3266          0.6804E+06
   6902      1     88     85      0.3260          0.6804E+06
   6903      1     88     86      0.3256          0.6804E+06
   6904      1     88     87      0.3256          0.6804E+06
   6905      1     89      1      0.9788          0.6804E+06
   6906      1     89      2      0.9734          0.6804E+06
   6907      1     89      3      0.9686          0.6804E+06
   6908      1     89      4      0.9631          0.6804E+06
   6909      1     89      5      0.9575          0.6804E+06
   6910      1     89      6      0.9523          0.6804E+06
   6911      1     89      7      0.9457          0.6804E+06
   6912      1     89      8      0.9381          0.6804E+06
   6913      1     89      9      0.9303          0.6804E+06
   6914      1     89     10      0.9195          0.6804E+06
   6915      1     89     11      0.9077          0.6804E+06
   6916      1     89     12      0.8887          0.6804E+06
   6917      1     89     13      0.8618          0.6804E+06
   6918      1     89     14      0.8333          0.6804E+06
   6919      1     89     15      0.7980          0.6804E+06
   6920      1     89     16      0.7671          0.6804E+06
   6921      1     89     17      0.7356          0.6804E+06
   6922      1     89     18      0.7101          0.6804E+06
   6923      1     89     19      0.6913          0.6804E+06
   6924      1     89     20      0.6689          0.6804E+06
   6925      1     89     21      0.6418          0.6804E+06
   6926      1     89     22      0.6119          0.6804E+06
   6927      1     89     23      0.5701          0.6804E+06
   6928      1     89     24      0.5286          0.6804E+06
   6929      1     89     25      0.4788          0.6804E+06
   6930      1     89     26      0.4288          0.6804E+06
   6931      1     89     27      0.3868          0.6804E+06
   6932      1     89     28      0.3426          0.6804E+06
   6933      1     89     29      0.3037          0.6804E+06
   6934      1     89     30      0.2753          0.6804E+06
   6935      1     89     31      0.2495          0.6804E+06
   6936      1     89     32      0.2314          0.6804E+06
   6937      1     89     33      0.2139          0.6804E+06
   6938      1     89     34      0.2005          0.6804E+06
   6939      1     89     35      0.1911          0.6804E+06
   6940      1     89     36      0.1828          0.6804E+06
   6941      1     89     37      0.1782          0.6804E+06
   6942      1     89     38      0.1789          0.6804E+06
   6943      1     89     39      0.1800          0.6804E+06
   6944      1     89     40      0.1795          0.6804E+06
   6945      1     89     41      0.1821          0.6804E+06
   6946      1     89     42      0.1886          0.6804E+06
   6947      1     89     43      0.1959          0.6804E+06
   6948      1     89     44      0.2050          0.6804E+06
   6949      1     89     45      0.2122          0.6804E+06
   6950      1     89     46      0.2153          0.6804E+06
   6951      1     89     47      0.2153          0.6804E+06
   6952      1     89     48      0.2123          0.6804E+06
   6953      1     89     49      0.2086          0.6804E+06
   6954      1     89     50      0.2041          0.6804E+06
   6955      1     89     51      0.2053          0.6804E+06
   6956      1     89     52      0.2126          0.6804E+06
   6957      1     89     53      0.2234          0.6804E+06
   6958      1     89     54      0.2364          0.6804E+06
   6959      1     89     55      0.2481          0.6804E+06
   6960      1     89     56      0.2582          0.6804E+06
   6961      1     89     57      0.2700          0.6804E+06
   6962      1     89     58      0.2796          0.6804E+06
   6963      1     89     59      0.2877          0.6804E+06
   6964      1     89     60      0.2975          0.6804E+06
   6965      1     89     61      0.3061          0.6804E+06
   6966      1     89     62      0.3147          0.6804E+06
   6967      1     89     63      0.3195          0.6804E+06
   6968      1     89     64      0.3208          0.6804E+06
   6969      1     89     65      0.3200          0.6804E+06
   6970      1     89     66      0.3195          0.6804E+06
   6971      1     89     67      0.3194          0.6804E+06
   6972      1     89     68      0.3205          0.6804E+06
   6973      1     89     69      0.3225          0.6804E+06
   6974      1     89     70      0.3248          0.6804E+06
   6975      1     89     71      0.3277          0.6804E+06
   6976      1     89     72      0.3289          0.6804E+06
   6977      1     89     73      0.3285          0.6804E+06
   6978      1     89     74      0.3274          0.6804E+06
   6979      1     89     75      0.3258          0.6804E+06
   6980      1     89     76      0.3249          0.6804E+06
   6981      1     89     77      0.3253          0.6804E+06
   6982      1     89     78      0.3267          0.6804E+06
   6983      1     89     79      0.3277          0.6804E+06
   6984      1     89     80      0.3281          0.6804E+06
   6985      1     89     81      0.3280          0.6804E+06
   6986      1     89     82      0.3276          0.6804E+06
   6987      1     89     83      0.3269          0.6804E+06
   6988      1     89     84      0.3262          0.6804E+06
   6989      1     89     85      0.3258          0.6804E+06
   6990      1     89     86      0.3255          0.6804E+06
   6991      1     89     87      0.3256          0.6804E+06
   6992      1     89     88      0.3261          0.6804E+06
   6993      1     89     89      0.3270          0.6804E+06
   6994      1     90      1      0.9739          0.6804E+06
   6995      1     90      2      0.9699          0.6804E+06
   6996      1     90      3      0.9659          0.6804E+06
   6997      1     90      4      0.9611          0.6804E+06
   6998      1     90      5      0.9560          0.6804E+06
   6999      1     90      6      0.9509          0.6804E+06
   7000      1     90      7      0.9442          0.6804E+06
   7001      1     90      8      0.9366          0.6804E+06
   7002      1     90      9      0.9287          0.6804E+06
   7003      1     90     10      0.9177          0.6804E+06
   7004      1     90     11      0.9057          0.6804E+06
   7005      1     90     12      0.8879          0.6804E+06
   7006      1     90     13      0.8653          0.6804E+06
   7007      1     90     14      0.8423          0.6804E+06
   7008      1     90     15      0.8140          0.6804E+06
   7009      1     90     16      0.7890          0.6804E+06
   7010      1     90     17      0.7619          0.6804E+06
   7011      1     90     18      0.7371          0.6804E+06
   7012      1     90     19      0.7163          0.6804E+06
   7013      1     90     20      0.6912          0.6804E+06
   7014      1     90     21      0.6620          0.6804E+06
   7015      1     90     22      0.6315          0.6804E+06
   7016      1     90     23      0.5898          0.6804E+06
   7017      1     90     24      0.5492          0.6804E+06
   7018      1     90     25      0.5003          0.6804E+06
   7019      1     90     26      0.4506          0.6804E+06
   7020      1     90     27      0.4083          0.6804E+06
   7021      1     90     28      0.3635          0.6804E+06
   7022      1     90     29      0.3235          0.6804E+06
   7023      1     90     30      0.2953          0.6804E+06
   7024      1     90     31      0.2710          0.6804E+06
   7025      1     90     32      0.2540          0.6804E+06
   7026      1     90     33      0.2382          0.6804E+06
   7027      1     90     34      0.2267          0.6804E+06
   7028      1     90     35      0.2191          0.6804E+06
   7029      1     90     36      0.2127          0.6804E+06
   7030      1     90     37      0.2097          0.6804E+06
   7031      1     90     38      0.2106          0.6804E+06
   7032      1     90     39      0.2137          0.6804E+06
   7033      1     90     40      0.2179          0.6804E+06
   7034      1     90     41      0.2216          0.6804E+06
   7035      1     90     42      0.2263          0.6804E+06
   7036      1     90     43      0.2315          0.6804E+06
   7037      1     90     44      0.2384          0.6804E+06
   7038      1     90     45      0.2435          0.6804E+06
   7039      1     90     46      0.2461          0.6804E+06
   7040      1     90     47      0.2474          0.6804E+06
   7041      1     90     48      0.2468          0.6804E+06
   7042      1     90     49      0.2453          0.6804E+06
   7043      1     90     50      0.2441          0.6804E+06
   7044      1     90     51      0.2455          0.6804E+06
   7045      1     90     52      0.2496          0.6804E+06
   7046      1     90     53      0.2556          0.6804E+06
   7047      1     90     54      0.2638          0.6804E+06
   7048      1     90     55      0.2718          0.6804E+06
   7049      1     90     56      0.2789          0.6804E+06
   7050      1     90     57      0.2874          0.6804E+06
   7051      1     90     58      0.2943          0.6804E+06
   7052      1     90     59      0.2996          0.6804E+06
   7053      1     90     60      0.3058          0.6804E+06
   7054      1     90     61      0.3115          0.6804E+06
   7055      1     90     62      0.3165          0.6804E+06
   7056      1     90     63      0.3203          0.6804E+06
   7057      1     90     64      0.3223          0.6804E+06
   7058      1     90     65      0.3230          0.6804E+06
   7059      1     90     66      0.3234          0.6804E+06
   7060      1     90     67      0.3240          0.6804E+06
   7061      1     90     68      0.3250          0.6804E+06
   7062      1     90     69      0.3260          0.6804E+06
   7063      1     90     70      0.3269          0.6804E+06
   7064      1     90     71      0.3282          0.6804E+06
   7065      1     90     72      0.3284          0.6804E+06
   7066      1     90     73      0.3275          0.6804E+06
   7067      1     90     74      0.3264          0.6804E+06
   7068      1     90     75      0.3236          0.6804E+06
   7069      1     90     76      0.3221          0.6804E+06
   7070      1     90     77      0.3227          0.6804E+06
   7071      1     90     78      0.3248          0.6804E+06
   7072      1     90     79      0.3262          0.6804E+06
   7073      1     90     80      0.3268          0.6804E+06
   7074      1     90     81      0.3270          0.6804E+06
   7075      1     90     82      0.3267          0.6804E+06
   7076      1     90     83      0.3262          0.6804E+06
   7077      1     90     84      0.3256          0.6804E+06
   7078      1     90     85      0.3252          0.6804E+06
   7079      1     90     86      0.3250          0.6804E+06
   7080      1     90     87      0.3252          0.6804E+06
   7081      1     90     88      0.3258          0.6804E+06
   7082      1     90     89      0.3269          0.6804E+06
   7083      1     90     90      0.3285          0.6804E+06
   7084      1     91      1      0.9689          0.6804E+06
   7085      1     91      2      0.9659          0.6804E+06
   7086      1     91      3      0.9626          0.6804E+06
   7087      1     91      4      0.9584          0.6804E+06
   7088      1     91      5      0.9534          0.6804E+06
   7089      1     91      6      0.9484          0.6804E+06
   7090      1     91      7      0.9417          0.6804E+06
   7091      1     91      8      0.9340          0.6804E+06
   7092      1     91      9      0.9260          0.6804E+06
   7093      1     91     10      0.9152          0.6804E+06
   7094      1     91     11      0.9036          0.6804E+06
   7095      1     91     12      0.8874          0.6804E+06
   7096      1     91     13      0.8679          0.6804E+06
   7097      1     91     14      0.8487          0.6804E+06
   7098      1     91     15      0.8256          0.6804E+06
   7099      1     91     16      0.8052          0.6804E+06
   7100      1     91     17      0.7816          0.6804E+06
   7101      1     91     18      0.7580          0.6804E+06
   7102      1     91     19      0.7369          0.6804E+06
   7103      1     91     20      0.7109          0.6804E+06
   7104      1     91     21      0.6811          0.6804E+06
   7105      1     91     22      0.6502          0.6804E+06
   7106      1     91     23      0.6081          0.6804E+06
   7107      1     91     24      0.5674          0.6804E+06
   7108      1     91     25      0.5184          0.6804E+06
   7109      1     91     26      0.4685          0.6804E+06
   7110      1     91     27      0.4259          0.6804E+06
   7111      1     91     28      0.3806          0.6804E+06
   7112      1     91     29      0.3400          0.6804E+06
   7113      1     91     30      0.3121          0.6804E+06
   7114      1     91     31      0.2892          0.6804E+06
   7115      1     91     32      0.2736          0.6804E+06
   7116      1     91     33      0.2599          0.6804E+06
   7117      1     91     34      0.2504          0.6804E+06
   7118      1     91     35      0.2444          0.6804E+06
   7119      1     91     36      0.2399          0.6804E+06
   7120      1     91     37      0.2383          0.6804E+06
   7121      1     91     38      0.2396          0.6804E+06
   7122      1     91     39      0.2443          0.6804E+06
   7123      1     91     40      0.2520          0.6804E+06
   7124      1     91     41      0.2567          0.6804E+06
   7125      1     91     42      0.2604          0.6804E+06
   7126      1     91     43      0.2640          0.6804E+06
   7127      1     91     44      0.2685          0.6804E+06
   7128      1     91     45      0.2719          0.6804E+06
   7129      1     91     46      0.2739          0.6804E+06
   7130      1     91     47      0.2766          0.6804E+06
   7131      1     91     48      0.2786          0.6804E+06
   7132      1     91     49      0.2793          0.6804E+06
   7133      1     91     50      0.2799          0.6804E+06
   7134      1     91     51      0.2810          0.6804E+06
   7135      1     91     52      0.2824          0.6804E+06
   7136      1     91     53      0.2847          0.6804E+06
   7137      1     91     54      0.2888          0.6804E+06
   7138      1     91     55      0.2931          0.6804E+06
   7139      1     91     56      0.2974          0.6804E+06
   7140      1     91     57      0.3030          0.6804E+06
   7141      1     91     58      0.3070          0.6804E+06
   7142      1     91     59      0.3095          0.6804E+06
   7143      1     91     60      0.3125          0.6804E+06
   7144      1     91     61      0.3158          0.6804E+06
   7145      1     91     62      0.3181          0.6804E+06
   7146      1     91     63      0.3209          0.6804E+06
   7147      1     91     64      0.3233          0.6804E+06
   7148      1     91     65      0.3249          0.6804E+06
   7149      1     91     66      0.3261          0.6804E+06
   7150      1     91     67      0.3273          0.6804E+06
   7151      1     91     68      0.3282          0.6804E+06
   7152      1     91     69      0.3286          0.6804E+06
   7153      1     91     70      0.3291          0.6804E+06
   7154      1     91     71      0.3293          0.6804E+06
   7155      1     91     72      0.3290          0.6804E+06
   7156      1     91     73      0.3280          0.6804E+06
   7157      1     91     74      0.3266          0.6804E+06
   7158      1     91     75      0.3243          0.6804E+06
   7159      1     91     76      0.3230          0.6804E+06
   7160      1     91     77      0.3235          0.6804E+06
   7161      1     91     78      0.3249          0.6804E+06
   7162      1     91     79      0.3259          0.6804E+06
   7163      1     91     80      0.3264          0.6804E+06
   7164      1     91     81      0.3265          0.6804E+06
   7165      1     91     82      0.3261          0.6804E+06
   7166      1     91     83      0.3256          0.6804E+06
   7167      1     91     84      0.3249          0.6804E+06
   7168      1     91     85      0.3245          0.6804E+06
   7169      1     91     86      0.3243          0.6804E+06
   7170      1     91     87      0.3246          0.6804E+06
   7171      1     91     88      0.3253          0.6804E+06
   7172      1     91     89      0.3266          0.6804E+06
   7173      1     91     90      0.3282          0.6804E+06
   7174      1     91     91      0.3299          0.6804E+06
   7175      1     91     92      0.3321          0.6804E+06
   7176      1     92      1      0.9627          0.6804E+06
   7177      1     92      2      0.9605          0.6804E+06
   7178      1     92      3      0.9579          0.6804E+06
   7179      1     92      4      0.9542          0.6804E+06
   7180      1     92      5      0.9495          0.6804E+06
   7181      1     92      6      0.9444          0.6804E+06
   7182      1     92      7      0.9378          0.6804E+06
   7183      1     92      8      0.9299          0.6804E+06
   7184      1     92      9      0.9220          0.6804E+06
   7185      1     92     10      0.9115          0.6804E+06
   7186      1     92     11      0.9007          0.6804E+06
   7187      1     92     12      0.8862          0.6804E+06
   7188      1     92     13      0.8697          0.6804E+06
   7189      1     92     14      0.8541          0.6804E+06
   7190      1     92     15      0.8356          0.6804E+06
   7191      1     92     16      0.8195          0.6804E+06
   7192      1     92     17      0.7996          0.6804E+06
   7193      1     92     18      0.7781          0.6804E+06
   7194      1     92     19      0.7577          0.6804E+06
   7195      1     92     20      0.7324          0.6804E+06
   7196      1     92     21      0.7030          0.6804E+06
   7197      1     92     22      0.6722          0.6804E+06
   7198      1     92     23      0.6297          0.6804E+06
   7199      1     92     24      0.5885          0.6804E+06
   7200      1     92     25      0.5389          0.6804E+06
   7201      1     92     26      0.4881          0.6804E+06
   7202      1     92     27      0.4449          0.6804E+06
   7203      1     92     28      0.3993          0.6804E+06
   7204      1     92     29      0.3600          0.6804E+06
   7205      1     92     30      0.3327          0.6804E+06
   7206      1     92     31      0.3104          0.6804E+06
   7207      1     92     32      0.2964          0.6804E+06
   7208      1     92     33      0.2851          0.6804E+06
   7209      1     92     34      0.2779          0.6804E+06
   7210      1     92     35      0.2738          0.6804E+06
   7211      1     92     36      0.2714          0.6804E+06
   7212      1     92     37      0.2714          0.6804E+06
   7213      1     92     38      0.2739          0.6804E+06
   7214      1     92     39      0.2796          0.6804E+06
   7215      1     92     40      0.2885          0.6804E+06
   7216      1     92     41      0.2952          0.6804E+06
   7217      1     92     42      0.2989          0.6804E+06
   7218      1     92     43      0.3008          0.6804E+06
   7219      1     92     44      0.3028          0.6804E+06
   7220      1     92     45      0.3046          0.6804E+06
   7221      1     92     46      0.3067          0.6804E+06
   7222      1     92     47      0.3110          0.6804E+06
   7223      1     92     48      0.3152          0.6804E+06
   7224      1     92     49      0.3181          0.6804E+06
   7225      1     92     50      0.3204          0.6804E+06
   7226      1     92     51      0.3210          0.6804E+06
   7227      1     92     52      0.3190          0.6804E+06
   7228      1     92     53      0.3173          0.6804E+06
   7229      1     92     54      0.3168          0.6804E+06
   7230      1     92     55      0.3168          0.6804E+06
   7231      1     92     56      0.3176          0.6804E+06
   7232      1     92     57      0.3197          0.6804E+06
   7233      1     92     58      0.3200          0.6804E+06
   7234      1     92     59      0.3200          0.6804E+06
   7235      1     92     60      0.3205          0.6804E+06
   7236      1     92     61      0.3210          0.6804E+06
   7237      1     92     62      0.3209          0.6804E+06
   7238      1     92     63      0.3228          0.6804E+06
   7239      1     92     64      0.3253          0.6804E+06
   7240      1     92     65      0.3272          0.6804E+06
   7241      1     92     66      0.3291          0.6804E+06
   7242      1     92     67      0.3303          0.6804E+06
   7243      1     92     68      0.3310          0.6804E+06
   7244      1     92     69      0.3313          0.6804E+06
   7245      1     92     70      0.3317          0.6804E+06
   7246      1     92     71      0.3314          0.6804E+06
   7247      1     92     72      0.3308          0.6804E+06
   7248      1     92     73      0.3298          0.6804E+06
   7249      1     92     74      0.3284          0.6804E+06
   7250      1     92     75      0.3269          0.6804E+06
   7251      1     92     76      0.3260          0.6804E+06
   7252      1     92     77      0.3260          0.6804E+06
   7253      1     92     78      0.3264          0.6804E+06
   7254      1     92     79      0.3267          0.6804E+06
   7255      1     92     80      0.3267          0.6804E+06
   7256      1     92     81      0.3264          0.6804E+06
   7257      1     92     82      0.3257          0.6804E+06
   7258      1     92     83      0.3250          0.6804E+06
   7259      1     92     84      0.3241          0.6804E+06
   7260      1     92     85      0.3235          0.6804E+06
   7261      1     92     86      0.3231          0.6804E+06
   7262      1     92     87      0.3235          0.6804E+06
   7263      1     92     88      0.3244          0.6804E+06
   7264      1     92     89      0.3259          0.6804E+06
   7265      1     92     90      0.3278          0.6804E+06
   7266      1     92     91      0.3296          0.6804E+06
   7267      1     92     92      0.3319          0.6804E+06
   7268      1     92     93      0.3339          0.6804E+06
   7269      1     93      1      0.9559          0.6804E+06
   7270      1     93      2      0.9544          0.6804E+06
   7271      1     93      3      0.9525          0.6804E+06
   7272      1     93      4      0.9491          0.6804E+06
   7273      1     93      5      0.9445          0.6804E+06
   7274      1     93      6      0.9395          0.6804E+06
   7275      1     93      7      0.9328          0.6804E+06
   7276      1     93      8      0.9249          0.6804E+06
   7277      1     93      9      0.9172          0.6804E+06
   7278      1     93     10      0.9072          0.6804E+06
   7279      1     93     11      0.8971          0.6804E+06
   7280      1     93     12      0.8842          0.6804E+06
   7281      1     93     13      0.8700          0.6804E+06
   7282      1     93     14      0.8569          0.6804E+06
   7283      1     93     15      0.8417          0.6804E+06
   7284      1     93     16      0.8285          0.6804E+06
   7285      1     93     17      0.8120          0.6804E+06
   7286      1     93     18      0.7934          0.6804E+06
   7287      1     93     19      0.7755          0.6804E+06
   7288      1     93     20      0.7525          0.6804E+06
   7289      1     93     21      0.7246          0.6804E+06
   7290      1     93     22      0.6946          0.6804E+06
   7291      1     93     23      0.6521          0.6804E+06
   7292      1     93     24      0.6101          0.6804E+06
   7293      1     93     25      0.5593          0.6804E+06
   7294      1     93     26      0.5072          0.6804E+06
   7295      1     93     27      0.4626          0.6804E+06
   7296      1     93     28      0.4159          0.6804E+06
   7297      1     93     29      0.3769          0.6804E+06
   7298      1     93     30      0.3506          0.6804E+06
   7299      1     93     31      0.3302          0.6804E+06
   7300      1     93     32      0.3185          0.6804E+06
   7301      1     93     33      0.3097          0.6804E+06
   7302      1     93     34      0.3048          0.6804E+06
   7303      1     93     35      0.3025          0.6804E+06
   7304      1     93     36      0.3019          0.6804E+06
   7305      1     93     37      0.3036          0.6804E+06
   7306      1     93     38      0.3071          0.6804E+06
   7307      1     93     39      0.3130          0.6804E+06
   7308      1     93     40      0.3204          0.6804E+06
   7309      1     93     41      0.3299          0.6804E+06
   7310      1     93     42      0.3346          0.6804E+06
   7311      1     93     43      0.3353          0.6804E+06
   7312      1     93     44      0.3355          0.6804E+06
   7313      1     93     45      0.3362          0.6804E+06
   7314      1     93     46      0.3385          0.6804E+06
   7315      1     93     47      0.3434          0.6804E+06
   7316      1     93     48      0.3483          0.6804E+06
   7317      1     93     49      0.3538          0.6804E+06
   7318      1     93     50      0.3589          0.6804E+06
   7319      1     93     51      0.3592          0.6804E+06
   7320      1     93     52      0.3522          0.6804E+06
   7321      1     93     53      0.3466          0.6804E+06
   7322      1     93     54      0.3418          0.6804E+06
   7323      1     93     55      0.3380          0.6804E+06
   7324      1     93     56      0.3356          0.6804E+06
   7325      1     93     57      0.3334          0.6804E+06
   7326      1     93     58      0.3311          0.6804E+06
   7327      1     93     59      0.3297          0.6804E+06
   7328      1     93     60      0.3289          0.6804E+06
   7329      1     93     61      0.3280          0.6804E+06
   7330      1     93     62      0.3271          0.6804E+06
   7331      1     93     63      0.3278          0.6804E+06
   7332      1     93     64      0.3291          0.6804E+06
   7333      1     93     65      0.3306          0.6804E+06
   7334      1     93     66      0.3319          0.6804E+06
   7335      1     93     67      0.3330          0.6804E+06
   7336      1     93     68      0.3337          0.6804E+06
   7337      1     93     69      0.3340          0.6804E+06
   7338      1     93     70      0.3342          0.6804E+06
   7339      1     93     71      0.3339          0.6804E+06
   7340      1     93     72      0.3333          0.6804E+06
   7341      1     93     73      0.3325          0.6804E+06
   7342      1     93     74      0.3315          0.6804E+06
   7343      1     93     75      0.3306          0.6804E+06
   7344      1     93     76      0.3297          0.6804E+06
   7345      1     93     77      0.3292          0.6804E+06
   7346      1     93     78      0.3287          0.6804E+06
   7347      1     93     79      0.3281          0.6804E+06
   7348      1     93     80      0.3275          0.6804E+06
   7349      1     93     81      0.3267          0.6804E+06
   7350      1     93     82      0.3256          0.6804E+06
   7351      1     93     83      0.3246          0.6804E+06
   7352      1     93     84      0.3234          0.6804E+06
   7353      1     93     85      0.3224          0.6804E+06
   7354      1     93     86      0.3218          0.6804E+06
   7355      1     93     87      0.3221          0.6804E+06
   7356      1     93     88      0.3232          0.6804E+06
   7357      1     93     89      0.3250          0.6804E+06
   7358      1     93     90      0.3272          0.6804E+06
   7359      1     93     91      0.3292          0.6804E+06
   7360      1     93     92      0.3316          0.6804E+06
   7361      1     93     93      0.3337          0.6804E+06
   7362      1     93     94      0.3360          0.6804E+06
   7363      1     94      1      0.9497          0.6804E+06
   7364      1     94      2      0.9487          0.6804E+06
   7365      1     94      3      0.9471          0.6804E+06
   7366      1     94      4      0.9441          0.6804E+06
   7367      1     94      5      0.9394          0.6804E+06
   7368      1     94      6      0.9342          0.6804E+06
   7369      1     94      7      0.9275          0.6804E+06
   7370      1     94      8      0.9198          0.6804E+06
   7371      1     94      9      0.9122          0.6804E+06
   7372      1     94     10      0.9027          0.6804E+06
   7373      1     94     11      0.8932          0.6804E+06
   7374      1     94     12      0.8813          0.6804E+06
   7375      1     94     13      0.8686          0.6804E+06
   7376      1     94     14      0.8571          0.6804E+06
   7377      1     94     15      0.8437          0.6804E+06
   7378      1     94     16      0.8321          0.6804E+06
   7379      1     94     17      0.8181          0.6804E+06
   7380      1     94     18      0.8030          0.6804E+06
   7381      1     94     19      0.7884          0.6804E+06
   7382      1     94     20      0.7688          0.6804E+06
   7383      1     94     21      0.7437          0.6804E+06
   7384      1     94     22      0.7152          0.6804E+06
   7385      1     94     23      0.6724          0.6804E+06
   7386      1     94     24      0.6295          0.6804E+06
   7387      1     94     25      0.5774          0.6804E+06
   7388      1     94     26      0.5238          0.6804E+06
   7389      1     94     27      0.4776          0.6804E+06
   7390      1     94     28      0.4286          0.6804E+06
   7391      1     94     29      0.3889          0.6804E+06
   7392      1     94     30      0.3637          0.6804E+06
   7393      1     94     31      0.3467          0.6804E+06
   7394      1     94     32      0.3378          0.6804E+06
   7395      1     94     33      0.3315          0.6804E+06
   7396      1     94     34      0.3285          0.6804E+06
   7397      1     94     35      0.3276          0.6804E+06
   7398      1     94     36      0.3281          0.6804E+06
   7399      1     94     37      0.3308          0.6804E+06
   7400      1     94     38      0.3351          0.6804E+06
   7401      1     94     39      0.3412          0.6804E+06
   7402      1     94     40      0.3483          0.6804E+06
   7403      1     94     41      0.3568          0.6804E+06
   7404      1     94     42      0.3610          0.6804E+06
   7405      1     94     43      0.3617          0.6804E+06
   7406      1     94     44      0.3616          0.6804E+06
   7407      1     94     45      0.3620          0.6804E+06
   7408      1     94     46      0.3637          0.6804E+06
   7409      1     94     47      0.3677          0.6804E+06
   7410      1     94     48      0.3726          0.6804E+06
   7411      1     94     49      0.3801          0.6804E+06
   7412      1     94     50      0.3870          0.6804E+06
   7413      1     94     51      0.3869          0.6804E+06
   7414      1     94     52      0.3765          0.6804E+06
   7415      1     94     53      0.3684          0.6804E+06
   7416      1     94     54      0.3607          0.6804E+06
   7417      1     94     55      0.3541          0.6804E+06
   7418      1     94     56      0.3492          0.6804E+06
   7419      1     94     57      0.3444          0.6804E+06
   7420      1     94     58      0.3404          0.6804E+06
   7421      1     94     59      0.3378          0.6804E+06
   7422      1     94     60      0.3359          0.6804E+06
   7423      1     94     61      0.3342          0.6804E+06
   7424      1     94     62      0.3328          0.6804E+06
   7425      1     94     63      0.3326          0.6804E+06
   7426      1     94     64      0.3331          0.6804E+06
   7427      1     94     65      0.3337          0.6804E+06
   7428      1     94     66      0.3346          0.6804E+06
   7429      1     94     67      0.3354          0.6804E+06
   7430      1     94     68      0.3359          0.6804E+06
   7431      1     94     69      0.3361          0.6804E+06
   7432      1     94     70      0.3363          0.6804E+06
   7433      1     94     71      0.3361          0.6804E+06
   7434      1     94     72      0.3357          0.6804E+06
   7435      1     94     73      0.3351          0.6804E+06
   7436      1     94     74      0.3345          0.6804E+06
   7437      1     94     75      0.3338          0.6804E+06
   7438      1     94     76      0.3330          0.6804E+06
   7439      1     94     77      0.3322          0.6804E+06
   7440      1     94     78      0.3310          0.6804E+06
   7441      1     94     79      0.3297          0.6804E+06
   7442      1     94     80      0.3286          0.6804E+06
   7443      1     94     81      0.3272          0.6804E+06
   7444      1     94     82      0.3258          0.6804E+06
   7445      1     94     83      0.3244          0.6804E+06
   7446      1     94     84      0.3229          0.6804E+06
   7447      1     94     85      0.3217          0.6804E+06
   7448      1     94     86      0.3206          0.6804E+06
   7449      1     94     87      0.3210          0.6804E+06
   7450      1     94     88      0.3223          0.6804E+06
   7451      1     94     89      0.3244          0.6804E+06
   7452      1     94     90      0.3268          0.6804E+06
   7453      1     94     91      0.3289          0.6804E+06
   7454      1     94     92      0.3314          0.6804E+06
   7455      1     94     93      0.3335          0.6804E+06
   7456      1     94     94      0.3359          0.6804E+06
   7457      1     94     95      0.3382          0.6804E+06
   7458      1     95      1      0.9422          0.6804E+06
   7459      1     95      2      0.9414          0.6804E+06
   7460      1     95      3      0.9400          0.6804E+06
   7461      1     95      4      0.9371          0.6804E+06
   7462      1     95      5      0.9325          0.6804E+06
   7463      1     95      6      0.9274          0.6804E+06
   7464      1     95      7      0.9208          0.6804E+06
   7465      1     95      8      0.9132          0.6804E+06
   7466      1     95      9      0.9059          0.6804E+06
   7467      1     95     10      0.8967          0.6804E+06
   7468      1     95     11      0.8878          0.6804E+06
   7469      1     95     12      0.8768          0.6804E+06
   7470      1     95     13      0.8652          0.6804E+06
   7471      1     95     14      0.8549          0.6804E+06
   7472      1     95     15      0.8430          0.6804E+06
   7473      1     95     16      0.8330          0.6804E+06
   7474      1     95     17      0.8218          0.6804E+06
   7475      1     95     18      0.8105          0.6804E+06
   7476      1     95     19      0.8000          0.6804E+06
   7477      1     95     20      0.7858          0.6804E+06
   7478      1     95     21      0.7657          0.6804E+06
   7479      1     95     22      0.7398          0.6804E+06
   7480      1     95     23      0.6957          0.6804E+06
   7481      1     95     24      0.6515          0.6804E+06
   7482      1     95     25      0.5984          0.6804E+06
   7483      1     95     26      0.5435          0.6804E+06
   7484      1     95     27      0.4956          0.6804E+06
   7485      1     95     28      0.4432          0.6804E+06
   7486      1     95     29      0.4017          0.6804E+06
   7487      1     95     30      0.3778          0.6804E+06
   7488      1     95     31      0.3667          0.6804E+06
   7489      1     95     32      0.3613          0.6804E+06
   7490      1     95     33      0.3575          0.6804E+06
   7491      1     95     34      0.3560          0.6804E+06
   7492      1     95     35      0.3560          0.6804E+06
   7493      1     95     36      0.3573          0.6804E+06
   7494      1     95     37      0.3605          0.6804E+06
   7495      1     95     38      0.3650          0.6804E+06
   7496      1     95     39      0.3712          0.6804E+06
   7497      1     95     40      0.3777          0.6804E+06
   7498      1     95     41      0.3847          0.6804E+06
   7499      1     95     42      0.3880          0.6804E+06
   7500      1     95     43      0.3881          0.6804E+06
   7501      1     95     44      0.3875          0.6804E+06
   7502      1     95     45      0.3875          0.6804E+06
   7503      1     95     46      0.3888          0.6804E+06
   7504      1     95     47      0.3922          0.6804E+06
   7505      1     95     48      0.3963          0.6804E+06
   7506      1     95     49      0.4018          0.6804E+06
   7507      1     95     50      0.4055          0.6804E+06
   7508      1     95     51      0.4043          0.6804E+06
   7509      1     95     52      0.3957          0.6804E+06
   7510      1     95     53      0.3872          0.6804E+06
   7511      1     95     54      0.3780          0.6804E+06
   7512      1     95     55      0.3691          0.6804E+06
   7513      1     95     56      0.3620          0.6804E+06
   7514      1     95     57      0.3559          0.6804E+06
   7515      1     95     58      0.3505          0.6804E+06
   7516      1     95     59      0.3467          0.6804E+06
   7517      1     95     60      0.3433          0.6804E+06
   7518      1     95     61      0.3408          0.6804E+06
   7519      1     95     62      0.3386          0.6804E+06
   7520      1     95     63      0.3376          0.6804E+06
   7521      1     95     64      0.3375          0.6804E+06
   7522      1     95     65      0.3375          0.6804E+06
   7523      1     95     66      0.3378          0.6804E+06
   7524      1     95     67      0.3380          0.6804E+06
   7525      1     95     68      0.3383          0.6804E+06
   7526      1     95     69      0.3384          0.6804E+06
   7527      1     95     70      0.3385          0.6804E+06
   7528      1     95     71      0.3384          0.6804E+06
   7529      1     95     72      0.3382          0.6804E+06
   7530      1     95     73      0.3380          0.6804E+06
   7531      1     95     74      0.3378          0.6804E+06
   7532      1     95     75      0.3375          0.6804E+06
   7533      1     95     76      0.3367          0.6804E+06
   7534      1     95     77      0.3355          0.6804E+06
   7535      1     95     78      0.3336          0.6804E+06
   7536      1     95     79      0.3317          0.6804E+06
   7537      1     95     80      0.3300          0.6804E+06
   7538      1     95     81      0.3280          0.6804E+06
   7539      1     95     82      0.3262          0.6804E+06
   7540      1     95     83      0.3246          0.6804E+06
   7541      1     95     84      0.3228          0.6804E+06
   7542      1     95     85      0.3213          0.6804E+06
   7543      1     95     86      0.3198          0.6804E+06
   7544      1     95     87      0.3202          0.6804E+06
   7545      1     95     88      0.3217          0.6804E+06
   7546      1     95     89      0.3240          0.6804E+06
   7547      1     95     90      0.3264          0.6804E+06
   7548      1     95     91      0.3286          0.6804E+06
   7549      1     95     92      0.3311          0.6804E+06
   7550      1     95     93      0.3333          0.6804E+06
   7551      1     95     94      0.3357          0.6804E+06
   7552      1     95     95      0.3381          0.6804E+06
   7553      1     96      1      0.9344          0.6804E+06
   7554      1     96      2      0.9335          0.6804E+06
   7555      1     96      3      0.9320          0.6804E+06
   7556      1     96      4      0.9291          0.6804E+06
   7557      1     96      5      0.9246          0.6804E+06
   7558      1     96      6      0.9197          0.6804E+06
   7559      1     96      7      0.9134          0.6804E+06
   7560      1     96      8      0.9060          0.6804E+06
   7561      1     96      9      0.8989          0.6804E+06
   7562      1     96     10      0.8900          0.6804E+06
   7563      1     96     11      0.8815          0.6804E+06
   7564      1     96     12      0.8710          0.6804E+06
   7565      1     96     13      0.8602          0.6804E+06
   7566      1     96     14      0.8505          0.6804E+06
   7567      1     96     15      0.8396          0.6804E+06
   7568      1     96     16      0.8308          0.6804E+06
   7569      1     96     17      0.8220          0.6804E+06
   7570      1     96     18      0.8142          0.6804E+06
   7571      1     96     19      0.8072          0.6804E+06
   7572      1     96     20      0.7978          0.6804E+06
   7573      1     96     21      0.7834          0.6804E+06
   7574      1     96     22      0.7614          0.6804E+06
   7575      1     96     23      0.7161          0.6804E+06
   7576      1     96     24      0.6718          0.6804E+06
   7577      1     96     25      0.6194          0.6804E+06
   7578      1     96     26      0.5651          0.6804E+06
   7579      1     96     27      0.5171          0.6804E+06
   7580      1     96     28      0.4630          0.6804E+06
   7581      1     96     29      0.4201          0.6804E+06
   7582      1     96     30      0.3973          0.6804E+06
   7583      1     96     31      0.3915          0.6804E+06
   7584      1     96     32      0.3882          0.6804E+06
   7585      1     96     33      0.3854          0.6804E+06
   7586      1     96     34      0.3842          0.6804E+06
   7587      1     96     35      0.3842          0.6804E+06
   7588      1     96     36      0.3854          0.6804E+06
   7589      1     96     37      0.3884          0.6804E+06
   7590      1     96     38      0.3926          0.6804E+06
   7591      1     96     39      0.3985          0.6804E+06
   7592      1     96     40      0.4046          0.6804E+06
   7593      1     96     41      0.4106          0.6804E+06
   7594      1     96     42      0.4127          0.6804E+06
   7595      1     96     43      0.4116          0.6804E+06
   7596      1     96     44      0.4096          0.6804E+06
   7597      1     96     45      0.4089          0.6804E+06
   7598      1     96     46      0.4094          0.6804E+06
   7599      1     96     47      0.4117          0.6804E+06
   7600      1     96     48      0.4147          0.6804E+06
   7601      1     96     49      0.4182          0.6804E+06
   7602      1     96     50      0.4196          0.6804E+06
   7603      1     96     51      0.4174          0.6804E+06
   7604      1     96     52      0.4093          0.6804E+06
   7605      1     96     53      0.4006          0.6804E+06
   7606      1     96     54      0.3904          0.6804E+06
   7607      1     96     55      0.3803          0.6804E+06
   7608      1     96     56      0.3727          0.6804E+06
   7609      1     96     57      0.3653          0.6804E+06
   7610      1     96     58      0.3591          0.6804E+06
   7611      1     96     59      0.3544          0.6804E+06
   7612      1     96     60      0.3499          0.6804E+06
   7613      1     96     61      0.3467          0.6804E+06
   7614      1     96     62      0.3438          0.6804E+06
   7615      1     96     63      0.3420          0.6804E+06
   7616      1     96     64      0.3413          0.6804E+06
   7617      1     96     65      0.3410          0.6804E+06
   7618      1     96     66      0.3407          0.6804E+06
   7619      1     96     67      0.3405          0.6804E+06
   7620      1     96     68      0.3405          0.6804E+06
   7621      1     96     69      0.3405          0.6804E+06
   7622      1     96     70      0.3405          0.6804E+06
   7623      1     96     71      0.3404          0.6804E+06
   7624      1     96     72      0.3404          0.6804E+06
   7625      1     96     73      0.3404          0.6804E+06
   7626      1     96     74      0.3405          0.6804E+06
   7627      1     96     75      0.3406          0.6804E+06
   7628      1     96     76      0.3399          0.6804E+06
   7629      1     96     77      0.3382          0.6804E+06
   7630      1     96     78      0.3357          0.6804E+06
   7631      1     96     79      0.3333          0.6804E+06
   7632      1     96     80      0.3312          0.6804E+06
   7633      1     96     81      0.3290          0.6804E+06
   7634      1     96     82      0.3268          0.6804E+06
   7635      1     96     83      0.3250          0.6804E+06
   7636      1     96     84      0.3232          0.6804E+06
   7637      1     96     85      0.3217          0.6804E+06
   7638      1     96     86      0.3206          0.6804E+06
   7639      1     96     87      0.3209          0.6804E+06
   7640      1     96     88      0.3220          0.6804E+06
   7641      1     96     89      0.3241          0.6804E+06
   7642      1     96     90      0.3264          0.6804E+06
   7643      1     96     91      0.3285          0.6804E+06
   7644      1     96     92      0.3309          0.6804E+06
   7645      1     96     93      0.3331          0.6804E+06
   7646      1     96     94      0.3355          0.6804E+06
   7647      1     96     95      0.3377          0.6804E+06
   7648      1     96     96      0.3395          0.6804E+06
   7649      1     97      1      0.9274          0.6804E+06
   7650      1     97      2      0.9264          0.6804E+06
   7651      1     97      3      0.9247          0.6804E+06
   7652      1     97      4      0.9217          0.6804E+06
   7653      1     97      5      0.9173          0.6804E+06
   7654      1     97      6      0.9125          0.6804E+06
   7655      1     97      7      0.9063          0.6804E+06
   7656      1     97      8      0.8991          0.6804E+06
   7657      1     97      9      0.8922          0.6804E+06
   7658      1     97     10      0.8835          0.6804E+06
   7659      1     97     11      0.8753          0.6804E+06
   7660      1     97     12      0.8652          0.6804E+06
   7661      1     97     13      0.8549          0.6804E+06
   7662      1     97     14      0.8456          0.6804E+06
   7663      1     97     15      0.8348          0.6804E+06
   7664      1     97     16      0.8267          0.6804E+06
   7665      1     97     17      0.8195          0.6804E+06
   7666      1     97     18      0.8145          0.6804E+06
   7667      1     97     19      0.8098          0.6804E+06
   7668      1     97     20      0.8023          0.6804E+06
   7669      1     97     21      0.7888          0.6804E+06
   7670      1     97     22      0.7680          0.6804E+06
   7671      1     97     23      0.7275          0.6804E+06
   7672      1     97     24      0.6867          0.6804E+06
   7673      1     97     25      0.6374          0.6804E+06
   7674      1     97     26      0.5863          0.6804E+06
   7675      1     97     27      0.5413          0.6804E+06
   7676      1     97     28      0.4923          0.6804E+06
   7677      1     97     29      0.4532          0.6804E+06
   7678      1     97     30      0.4309          0.6804E+06
   7679      1     97     31      0.4213          0.6804E+06
   7680      1     97     32      0.4162          0.6804E+06
   7681      1     97     33      0.4119          0.6804E+06
   7682      1     97     34      0.4096          0.6804E+06
   7683      1     97     35      0.4088          0.6804E+06
   7684      1     97     36      0.4090          0.6804E+06
   7685      1     97     37      0.4113          0.6804E+06
   7686      1     97     38      0.4148          0.6804E+06
   7687      1     97     39      0.4200          0.6804E+06
   7688      1     97     40      0.4256          0.6804E+06
   7689      1     97     41      0.4308          0.6804E+06
   7690      1     97     42      0.4318          0.6804E+06
   7691      1     97     43      0.4293          0.6804E+06
   7692      1     97     44      0.4260          0.6804E+06
   7693      1     97     45      0.4243          0.6804E+06
   7694      1     97     46      0.4239          0.6804E+06
   7695      1     97     47      0.4250          0.6804E+06
   7696      1     97     48      0.4268          0.6804E+06
   7697      1     97     49      0.4292          0.6804E+06
   7698      1     97     50      0.4297          0.6804E+06
   7699      1     97     51      0.4270          0.6804E+06
   7700      1     97     52      0.4181          0.6804E+06
   7701      1     97     53      0.4087          0.6804E+06
   7702      1     97     54      0.3979          0.6804E+06
   7703      1     97     55      0.3877          0.6804E+06
   7704      1     97     56      0.3799          0.6804E+06
   7705      1     97     57      0.3719          0.6804E+06
   7706      1     97     58      0.3652          0.6804E+06
   7707      1     97     59      0.3601          0.6804E+06
   7708      1     97     60      0.3551          0.6804E+06
   7709      1     97     61      0.3513          0.6804E+06
   7710      1     97     62      0.3479          0.6804E+06
   7711      1     97     63      0.3456          0.6804E+06
   7712      1     97     64      0.3444          0.6804E+06
   7713      1     97     65      0.3436          0.6804E+06
   7714      1     97     66      0.3429          0.6804E+06
   7715      1     97     67      0.3424          0.6804E+06
   7716      1     97     68      0.3422          0.6804E+06
   7717      1     97     69      0.3421          0.6804E+06
   7718      1     97     70      0.3420          0.6804E+06
   7719      1     97     71      0.3419          0.6804E+06
   7720      1     97     72      0.3419          0.6804E+06
   7721      1     97     73      0.3420          0.6804E+06
   7722      1     97     74      0.3421          0.6804E+06
   7723      1     97     75      0.3423          0.6804E+06
   7724      1     97     76      0.3417          0.6804E+06
   7725      1     97     77      0.3397          0.6804E+06
   7726      1     97     78      0.3370          0.6804E+06
   7727      1     97     79      0.3343          0.6804E+06
   7728      1     97     80      0.3321          0.6804E+06
   7729      1     97     81      0.3297          0.6804E+06
   7730      1     97     82      0.3274          0.6804E+06
   7731      1     97     83      0.3256          0.6804E+06
   7732      1     97     84      0.3237          0.6804E+06
   7733      1     97     85      0.3224          0.6804E+06
   7734      1     97     86      0.3216          0.6804E+06
   7735      1     97     87      0.3217          0.6804E+06
   7736      1     97     88      0.3226          0.6804E+06
   7737      1     97     89      0.3243          0.6804E+06
   7738      1     97     90      0.3264          0.6804E+06
   7739      1     97     91      0.3284          0.6804E+06
   7740      1     97     92      0.3308          0.6804E+06
   7741      1     97     93      0.3329          0.6804E+06
   7742      1     97     94      0.3352          0.6804E+06
   7743      1     97     95      0.3373          0.6804E+06
   7744      1     97     96      0.3390          0.6804E+06
   7745      1     97     97      0.3406          0.6804E+06
   7746      1     98      1      0.9196          0.6804E+06
   7747      1     98      2      0.9182          0.6804E+06
   7748      1     98      3      0.9162          0.6804E+06
   7749      1     98      4      0.9130          0.6804E+06
   7750      1     98      5      0.9086          0.6804E+06
   7751      1     98      6      0.9039          0.6804E+06
   7752      1     98      7      0.8978          0.6804E+06
   7753      1     98      8      0.8907          0.6804E+06
   7754      1     98      9      0.8839          0.6804E+06
   7755      1     98     10      0.8756          0.6804E+06
   7756      1     98     11      0.8677          0.6804E+06
   7757      1     98     12      0.8580          0.6804E+06
   7758      1     98     13      0.8481          0.6804E+06
   7759      1     98     14      0.8390          0.6804E+06
   7760      1     98     15      0.8284          0.6804E+06
   7761      1     98     16      0.8207          0.6804E+06
   7762      1     98     17      0.8150          0.6804E+06
   7763      1     98     18      0.8129          0.6804E+06
   7764      1     98     19      0.8101          0.6804E+06
   7765      1     98     20      0.8034          0.6804E+06
   7766      1     98     21      0.7901          0.6804E+06
   7767      1     98     22      0.7705          0.6804E+06
   7768      1     98     23      0.7371          0.6804E+06
   7769      1     98     24      0.7017          0.6804E+06
   7770      1     98     25      0.6577          0.6804E+06
   7771      1     98     26      0.6117          0.6804E+06
   7772      1     98     27      0.5718          0.6804E+06
   7773      1     98     28      0.5301          0.6804E+06
   7774      1     98     29      0.4959          0.6804E+06
   7775      1     98     30      0.4741          0.6804E+06
   7776      1     98     31      0.4599          0.6804E+06
   7777      1     98     32      0.4513          0.6804E+06
   7778      1     98     33      0.4436          0.6804E+06
   7779      1     98     34      0.4386          0.6804E+06
   7780      1     98     35      0.4360          0.6804E+06
   7781      1     98     36      0.4344          0.6804E+06
   7782      1     98     37      0.4350          0.6804E+06
   7783      1     98     38      0.4371          0.6804E+06
   7784      1     98     39      0.4408          0.6804E+06
   7785      1     98     40      0.4448          0.6804E+06
   7786      1     98     41      0.4481          0.6804E+06
   7787      1     98     42      0.4480          0.6804E+06
   7788      1     98     43      0.4451          0.6804E+06
   7789      1     98     44      0.4410          0.6804E+06
   7790      1     98     45      0.4379          0.6804E+06
   7791      1     98     46      0.4363          0.6804E+06
   7792      1     98     47      0.4358          0.6804E+06
   7793      1     98     48      0.4363          0.6804E+06
   7794      1     98     49      0.4374          0.6804E+06
   7795      1     98     50      0.4372          0.6804E+06
   7796      1     98     51      0.4339          0.6804E+06
   7797      1     98     52      0.4242          0.6804E+06
   7798      1     98     53      0.4144          0.6804E+06
   7799      1     98     54      0.4036          0.6804E+06
   7800      1     98     55      0.3936          0.6804E+06
   7801      1     98     56      0.3858          0.6804E+06
   7802      1     98     57      0.3776          0.6804E+06
   7803      1     98     58      0.3704          0.6804E+06
   7804      1     98     59      0.3650          0.6804E+06
   7805      1     98     60      0.3596          0.6804E+06
   7806      1     98     61      0.3556          0.6804E+06
   7807      1     98     62      0.3519          0.6804E+06
   7808      1     98     63      0.3491          0.6804E+06
   7809      1     98     64      0.3474          0.6804E+06
   7810      1     98     65      0.3460          0.6804E+06
   7811      1     98     66      0.3449          0.6804E+06
   7812      1     98     67      0.3442          0.6804E+06
   7813      1     98     68      0.3438          0.6804E+06
   7814      1     98     69      0.3437          0.6804E+06
   7815      1     98     70      0.3435          0.6804E+06
   7816      1     98     71      0.3432          0.6804E+06
   7817      1     98     72      0.3431          0.6804E+06
   7818      1     98     73      0.3431          0.6804E+06
   7819      1     98     74      0.3430          0.6804E+06
   7820      1     98     75      0.3428          0.6804E+06
   7821      1     98     76      0.3418          0.6804E+06
   7822      1     98     77      0.3402          0.6804E+06
   7823      1     98     78      0.3377          0.6804E+06
   7824      1     98     79      0.3351          0.6804E+06
   7825      1     98     80      0.3328          0.6804E+06
   7826      1     98     81      0.3303          0.6804E+06
   7827      1     98     82      0.3280          0.6804E+06
   7828      1     98     83      0.3262          0.6804E+06
   7829      1     98     84      0.3244          0.6804E+06
   7830      1     98     85      0.3231          0.6804E+06
   7831      1     98     86      0.3224          0.6804E+06
   7832      1     98     87      0.3225          0.6804E+06
   7833      1     98     88      0.3232          0.6804E+06
   7834      1     98     89      0.3247          0.6804E+06
   7835      1     98     90      0.3266          0.6804E+06
   7836      1     98     91      0.3284          0.6804E+06
   7837      1     98     92      0.3307          0.6804E+06
   7838      1     98     93      0.3327          0.6804E+06
   7839      1     98     94      0.3349          0.6804E+06
   7840      1     98     95      0.3369          0.6804E+06
   7841      1     98     96      0.3385          0.6804E+06
   7842      1     98     97      0.3400          0.6804E+06
   7843      1     98     98      0.3410          0.6804E+06
   7844      1     99      1      0.9128          0.6804E+06
   7845      1     99      2      0.9111          0.6804E+06
   7846      1     99      3      0.9088          0.6804E+06
   7847      1     99      4      0.9054          0.6804E+06
   7848      1     99      5      0.9008          0.6804E+06
   7849      1     99      6      0.8960          0.6804E+06
   7850      1     99      7      0.8900          0.6804E+06
   7851      1     99      8      0.8831          0.6804E+06
   7852      1     99      9      0.8764          0.6804E+06
   7853      1     99     10      0.8683          0.6804E+06
   7854      1     99     11      0.8607          0.6804E+06
   7855      1     99     12      0.8514          0.6804E+06
   7856      1     99     13      0.8419          0.6804E+06
   7857      1     99     14      0.8333          0.6804E+06
   7858      1     99     15      0.8235          0.6804E+06
   7859      1     99     16      0.8166          0.6804E+06
   7860      1     99     17      0.8120          0.6804E+06
   7861      1     99     18      0.8112          0.6804E+06
   7862      1     99     19      0.8095          0.6804E+06
   7863      1     99     20      0.8038          0.6804E+06
   7864      1     99     21      0.7919          0.6804E+06
   7865      1     99     22      0.7744          0.6804E+06
   7866      1     99     23      0.7453          0.6804E+06
   7867      1     99     24      0.7141          0.6804E+06
   7868      1     99     25      0.6750          0.6804E+06
   7869      1     99     26      0.6339          0.6804E+06
   7870      1     99     27      0.5987          0.6804E+06
   7871      1     99     28      0.5627          0.6804E+06
   7872      1     99     29      0.5323          0.6804E+06
   7873      1     99     30      0.5114          0.6804E+06
   7874      1     99     31      0.4943          0.6804E+06
   7875      1     99     32      0.4823          0.6804E+06
   7876      1     99     33      0.4711          0.6804E+06
   7877      1     99     34      0.4631          0.6804E+06
   7878      1     99     35      0.4583          0.6804E+06
   7879      1     99     36      0.4547          0.6804E+06
   7880      1     99     37      0.4535          0.6804E+06
   7881      1     99     38      0.4540          0.6804E+06
   7882      1     99     39      0.4559          0.6804E+06
   7883      1     99     40      0.4581          0.6804E+06
   7884      1     99     41      0.4595          0.6804E+06
   7885      1     99     42      0.4584          0.6804E+06
   7886      1     99     43      0.4552          0.6804E+06
   7887      1     99     44      0.4509          0.6804E+06
   7888      1     99     45      0.4466          0.6804E+06
   7889      1     99     46      0.4436          0.6804E+06
   7890      1     99     47      0.4416          0.6804E+06
   7891      1     99     48      0.4407          0.6804E+06
   7892      1     99     49      0.4399          0.6804E+06
   7893      1     99     50      0.4379          0.6804E+06
   7894      1     99     51      0.4338          0.6804E+06
   7895      1     99     52      0.4252          0.6804E+06
   7896      1     99     53      0.4165          0.6804E+06
   7897      1     99     54      0.4063          0.6804E+06
   7898      1     99     55      0.3966          0.6804E+06
   7899      1     99     56      0.3890          0.6804E+06
   7900      1     99     57      0.3807          0.6804E+06
   7901      1     99     58      0.3735          0.6804E+06
   7902      1     99     59      0.3680          0.6804E+06
   7903      1     99     60      0.3625          0.6804E+06
   7904      1     99     61      0.3583          0.6804E+06
   7905      1     99     62      0.3545          0.6804E+06
   7906      1     99     63      0.3514          0.6804E+06
   7907      1     99     64      0.3494          0.6804E+06
   7908      1     99     65      0.3476          0.6804E+06
   7909      1     99     66      0.3463          0.6804E+06
   7910      1     99     67      0.3455          0.6804E+06
   7911      1     99     68      0.3449          0.6804E+06
   7912      1     99     69      0.3446          0.6804E+06
   7913      1     99     70      0.3443          0.6804E+06
   7914      1     99     71      0.3441          0.6804E+06
   7915      1     99     72      0.3439          0.6804E+06
   7916      1     99     73      0.3437          0.6804E+06
   7917      1     99     74      0.3434          0.6804E+06
   7918      1     99     75      0.3428          0.6804E+06
   7919      1     99     76      0.3417          0.6804E+06
   7920      1     99     77      0.3402          0.6804E+06
   7921      1     99     78      0.3379          0.6804E+06
   7922      1     99     79      0.3354          0.6804E+06
   7923      1     99     80      0.3332          0.6804E+06
   7924      1     99     81      0.3307          0.6804E+06
   7925      1     99     82      0.3284          0.6804E+06
   7926      1     99     83      0.3266          0.6804E+06
   7927      1     99     84      0.3248          0.6804E+06
   7928      1     99     85      0.3236          0.6804E+06
   7929      1     99     86      0.3229          0.6804E+06
   7930      1     99     87      0.3230          0.6804E+06
   7931      1     99     88      0.3236          0.6804E+06
   7932      1     99     89      0.3249          0.6804E+06
   7933      1     99     90      0.3267          0.6804E+06
   7934      1     99     91      0.3285          0.6804E+06
   7935      1     99     92      0.3307          0.6804E+06
   7936      1     99     93      0.3326          0.6804E+06
   7937      1     99     94      0.3347          0.6804E+06
   7938      1     99     95      0.3366          0.6804E+06
   7939      1     99     96      0.3381          0.6804E+06
   7940      1     99     97      0.3395          0.6804E+06
   7941      1     99     98      0.3405          0.6804E+06
   7942      1     99     99      0.3413          0.6804E+06
   7943      1    100      1      0.9051          0.6804E+06
   7944      1    100      2      0.9029          0.6804E+06
   7945      1    100      3      0.9002          0.6804E+06
   7946      1    100      4      0.8965          0.6804E+06
   7947      1    100      5      0.8917          0.6804E+06
   7948      1    100      6      0.8869          0.6804E+06
   7949      1    100      7      0.8809          0.6804E+06
   7950      1    100      8      0.8741          0.6804E+06
   7951      1    100      9      0.8676          0.6804E+06
   7952      1    100     10      0.8597          0.6804E+06
   7953      1    100     11      0.8523          0.6804E+06
   7954      1    100     12      0.8435          0.6804E+06
   7955      1    100     13      0.8347          0.6804E+06
   7956      1    100     14      0.8270          0.6804E+06
   7957      1    100     15      0.8188          0.6804E+06
   7958      1    100     16      0.8135          0.6804E+06
   7959      1    100     17      0.8102          0.6804E+06
   7960      1    100     18      0.8098          0.6804E+06
   7961      1    100     19      0.8091          0.6804E+06
   7962      1    100     20      0.8053          0.6804E+06
   7963      1    100     21      0.7961          0.6804E+06
   7964      1    100     22      0.7815          0.6804E+06
   7965      1    100     23      0.7559          0.6804E+06
   7966      1    100     24      0.7282          0.6804E+06
   7967      1    100     25      0.6935          0.6804E+06
   7968      1    100     26      0.6575          0.6804E+06
   7969      1    100     27      0.6270          0.6804E+06
   7970      1    100     28      0.5962          0.6804E+06
   7971      1    100     29      0.5696          0.6804E+06
   7972      1    100     30      0.5503          0.6804E+06
   7973      1    100     31      0.5315          0.6804E+06
   7974      1    100     32      0.5162          0.6804E+06
   7975      1    100     33      0.5008          0.6804E+06
   7976      1    100     34      0.4891          0.6804E+06
   7977      1    100     35      0.4816          0.6804E+06
   7978      1    100     36      0.4754          0.6804E+06
   7979      1    100     37      0.4719          0.6804E+06
   7980      1    100     38      0.4705          0.6804E+06
   7981      1    100     39      0.4703          0.6804E+06
   7982      1    100     40      0.4706          0.6804E+06
   7983      1    100     41      0.4703          0.6804E+06
   7984      1    100     42      0.4678          0.6804E+06
   7985      1    100     43      0.4639          0.6804E+06
   7986      1    100     44      0.4587          0.6804E+06
   7987      1    100     45      0.4532          0.6804E+06
   7988      1    100     46      0.4488          0.6804E+06
   7989      1    100     47      0.4447          0.6804E+06
   7990      1    100     48      0.4420          0.6804E+06
   7991      1    100     49      0.4390          0.6804E+06
   7992      1    100     50      0.4351          0.6804E+06
   7993      1    100     51      0.4303          0.6804E+06
   7994      1    100     52      0.4228          0.6804E+06
   7995      1    100     53      0.4154          0.6804E+06
   7996      1    100     54      0.4066          0.6804E+06
   7997      1    100     55      0.3979          0.6804E+06
   7998      1    100     56      0.3905          0.6804E+06
   7999      1    100     57      0.3826          0.6804E+06
   8000      1    100     58      0.3756          0.6804E+06
   8001      1    100     59      0.3701          0.6804E+06
   8002      1    100     60      0.3645          0.6804E+06
   8003      1    100     61      0.3604          0.6804E+06
   8004      1    100     62      0.3564          0.6804E+06
   8005      1    100     63      0.3531          0.6804E+06
   8006      1    100     64      0.3509          0.6804E+06
   8007      1    100     65      0.3489          0.6804E+06
   8008      1    100     66      0.3474          0.6804E+06
   8009      1    100     67      0.3465          0.6804E+06
   8010      1    100     68      0.3457          0.6804E+06
   8011      1    100     69      0.3452          0.6804E+06
   8012      1    100     70      0.3449          0.6804E+06
   8013      1    100     71      0.3446          0.6804E+06
   8014      1    100     72      0.3444          0.6804E+06
   8015      1    100     73      0.3440          0.6804E+06
   8016      1    100     74      0.3435          0.6804E+06
   8017      1    100     75      0.3428          0.6804E+06
   8018      1    100     76      0.3416          0.6804E+06
   8019      1    100     77      0.3401          0.6804E+06
   8020      1    100     78      0.3380          0.6804E+06
   8021      1    100     79      0.3356          0.6804E+06
   8022      1    100     80      0.3335          0.6804E+06
   8023      1    100     81      0.3310          0.6804E+06
   8024      1    100     82      0.3287          0.6804E+06
   8025      1    100     83      0.3268          0.6804E+06
   8026      1    100     84      0.3251          0.6804E+06
   8027      1    100     85      0.3239          0.6804E+06
   8028      1    100     86      0.3232          0.6804E+06
   8029      1    100     87      0.3233          0.6804E+06
   8030      1    100     88      0.3238          0.6804E+06
   8031      1    100     89      0.3251          0.6804E+06
   8032      1    100     90      0.3268          0.6804E+06
   8033      1    100     91      0.3286          0.6804E+06
   8034      1    100     92      0.3307          0.6804E+06
   8035      1    100     93      0.3325          0.6804E+06
   8036      1    100     94      0.3346          0.6804E+06
   8037      1    100     95      0.3365          0.6804E+06
   8038      1    100     96      0.3379          0.6804E+06
   8039      1    100     97      0.3392          0.6804E+06
   8040      1    100     98      0.3400          0.6804E+06
   8041      1    100     99      0.3406          0.6804E+06
   8042      1    100    100      0.3410          0.6804E+06

   8042 GHB CELLS



                           RECHARGE
 READING ON UNIT   19 WITH FORMAT: (100E15.6)          
 
 SOLVING FOR HEAD 

 NO OUTPUT CONTROL FOR STRESS PERIOD    4   TIME STEP    1
 SOLVING FOR ZETA FOR LAYER     1 ZONE     2
 SOLVING FOR ZETA FOR LAYER     2 ZONE     2
 SOLVING FOR ZETA FOR LAYER     3 ZONE     2
 
 SOLVING FOR HEAD 

 NO OUTPUT CONTROL FOR STRESS PERIOD    4   TIME STEP    2
 SOLVING FOR ZETA FOR LAYER     1 ZONE     2
 SOLVING FOR ZETA FOR LAYER     2 ZONE     2
 SOLVING FOR ZETA FOR LAYER     3 ZONE     2
 
 SOLVING FOR HEAD 

 NO OUTPUT CONTROL FOR STRESS PERIOD    4   TIME STEP    3
 SOLVING FOR ZETA FOR LAYER     1 ZONE     2
 SOLVING FOR ZETA FOR LAYER     2 ZONE     2
 SOLVING FOR ZETA FOR LAYER     3 ZONE     2
 
 SOLVING FOR HEAD 

 NO OUTPUT CONTROL FOR STRESS PERIOD    4   TIME STEP    4
 SOLVING FOR ZETA FOR LAYER     1 ZONE     2
 SOLVING FOR ZETA FOR LAYER     2 ZONE     2
 SOLVING FOR ZETA FOR LAYER     3 ZONE     2
 
 SOLVING FOR HEAD 

 NO OUTPUT CONTROL FOR STRESS PERIOD    4   TIME STEP    5
 SOLVING FOR ZETA FOR LAYER     1 ZONE     2
 SOLVING FOR ZETA FOR LAYER     2 ZONE     2
 SOLVING FOR ZETA FOR LAYER     3 ZONE     2
 
 SOLVING FOR HEAD 

 NO OUTPUT CONTROL FOR STRESS PERIOD    4   TIME STEP    6
 SOLVING FOR ZETA FOR LAYER     1 ZONE     2
 SOLVING FOR ZETA FOR LAYER     2 ZONE     2
 SOLVING FOR ZETA FOR LAYER     3 ZONE     2
 
 SOLVING FOR HEAD 

 NO OUTPUT CONTROL FOR STRESS PERIOD    4   TIME STEP    7
 SOLVING FOR ZETA FOR LAYER     1 ZONE     2
 SOLVING FOR ZETA FOR LAYER     2 ZONE     2
 SOLVING FOR ZETA FOR LAYER     3 ZONE     2
 
 SOLVING FOR HEAD 

 NO OUTPUT CONTROL FOR STRESS PERIOD    4   TIME STEP    8
 SOLVING FOR ZETA FOR LAYER     1 ZONE     2
 SOLVING FOR ZETA FOR LAYER     2 ZONE     2
 SOLVING FOR ZETA FOR LAYER     3 ZONE     2
 
 SOLVING FOR HEAD 

 NO OUTPUT CONTROL FOR STRESS PERIOD    4   TIME STEP    9
 SOLVING FOR ZETA FOR LAYER     1 ZONE     2
 SOLVING FOR ZETA FOR LAYER     2 ZONE     2
 SOLVING FOR ZETA FOR LAYER     3 ZONE     2
 
 SOLVING FOR HEAD 

 NO OUTPUT CONTROL FOR STRESS PERIOD    4   TIME STEP   10
 SOLVING FOR ZETA FOR LAYER     1 ZONE     2
 SOLVING FOR ZETA FOR LAYER     2 ZONE     2
 SOLVING FOR ZETA FOR LAYER     3 ZONE     2
 
 SOLVING FOR HEAD 

 NO OUTPUT CONTROL FOR STRESS PERIOD    4   TIME STEP   11
 SOLVING FOR ZETA FOR LAYER     1 ZONE     2
 SOLVING FOR ZETA FOR LAYER     2 ZONE     2
 SOLVING FOR ZETA FOR LAYER     3 ZONE     2
 
 SOLVING FOR HEAD 

 NO OUTPUT CONTROL FOR STRESS PERIOD    4   TIME STEP   12
 SOLVING FOR ZETA FOR LAYER     1 ZONE     2
 SOLVING FOR ZETA FOR LAYER     2 ZONE     2
 SOLVING FOR ZETA FOR LAYER     3 ZONE     2
 
 SOLVING FOR HEAD 

 NO OUTPUT CONTROL FOR STRESS PERIOD    4   TIME STEP   13
 SOLVING FOR ZETA FOR LAYER     1 ZONE     2
 SOLVING FOR ZETA FOR LAYER     2 ZONE     2
 SOLVING FOR ZETA FOR LAYER     3 ZONE     2
 
 SOLVING FOR HEAD 

 NO OUTPUT CONTROL FOR STRESS PERIOD    4   TIME STEP   14
 SOLVING FOR ZETA FOR LAYER     1 ZONE     2
 SOLVING FOR ZETA FOR LAYER     2 ZONE     2
 SOLVING FOR ZETA FOR LAYER     3 ZONE     2
 
 SOLVING FOR HEAD 

 NO OUTPUT CONTROL FOR STRESS PERIOD    4   TIME STEP   15
 SOLVING FOR ZETA FOR LAYER     1 ZONE     2
 SOLVING FOR ZETA FOR LAYER     2 ZONE     2
 SOLVING FOR ZETA FOR LAYER     3 ZONE     2
 
 SOLVING FOR HEAD 

 NO OUTPUT CONTROL FOR STRESS PERIOD    4   TIME STEP   16
 SOLVING FOR ZETA FOR LAYER     1 ZONE     2
 SOLVING FOR ZETA FOR LAYER     2 ZONE     2
 SOLVING FOR ZETA FOR LAYER     3 ZONE     2
 
 SOLVING FOR HEAD 

 NO OUTPUT CONTROL FOR STRESS PERIOD    4   TIME STEP   17
 SOLVING FOR ZETA FOR LAYER     1 ZONE     2
 SOLVING FOR ZETA FOR LAYER     2 ZONE     2
 SOLVING FOR ZETA FOR LAYER     3 ZONE     2
 
 SOLVING FOR HEAD 

 NO OUTPUT CONTROL FOR STRESS PERIOD    4   TIME STEP   18
 SOLVING FOR ZETA FOR LAYER     1 ZONE     2
 SOLVING FOR ZETA FOR LAYER     2 ZONE     2
 SOLVING FOR ZETA FOR LAYER     3 ZONE     2
 
 SOLVING FOR HEAD 

 NO OUTPUT CONTROL FOR STRESS PERIOD    4   TIME STEP   19
 SOLVING FOR ZETA FOR LAYER     1 ZONE     2
 SOLVING FOR ZETA FOR LAYER     2 ZONE     2
 SOLVING FOR ZETA FOR LAYER     3 ZONE     2
 
 SOLVING FOR HEAD 

 NO OUTPUT CONTROL FOR STRESS PERIOD    4   TIME STEP   20
 SOLVING FOR ZETA FOR LAYER     1 ZONE     2
 SOLVING FOR ZETA FOR LAYER     2 ZONE     2
 SOLVING FOR ZETA FOR LAYER     3 ZONE     2
 
 SOLVING FOR HEAD 

 NO OUTPUT CONTROL FOR STRESS PERIOD    4   TIME STEP   21
 SOLVING FOR ZETA FOR LAYER     1 ZONE     2
 SOLVING FOR ZETA FOR LAYER     2 ZONE     2
 SOLVING FOR ZETA FOR LAYER     3 ZONE     2
 
 SOLVING FOR HEAD 

 NO OUTPUT CONTROL FOR STRESS PERIOD    4   TIME STEP   22
 SOLVING FOR ZETA FOR LAYER     1 ZONE     2
 SOLVING FOR ZETA FOR LAYER     2 ZONE     2
 SOLVING FOR ZETA FOR LAYER     3 ZONE     2
 
 SOLVING FOR HEAD 

 NO OUTPUT CONTROL FOR STRESS PERIOD    4   TIME STEP   23
 SOLVING FOR ZETA FOR LAYER     1 ZONE     2
 SOLVING FOR ZETA FOR LAYER     2 ZONE     2
 SOLVING FOR ZETA FOR LAYER     3 ZONE     2
 
 SOLVING FOR HEAD 

 NO OUTPUT CONTROL FOR STRESS PERIOD    4   TIME STEP   24
 SOLVING FOR ZETA FOR LAYER     1 ZONE     2
 SOLVING FOR ZETA FOR LAYER     2 ZONE     2
 SOLVING FOR ZETA FOR LAYER     3 ZONE     2
 
 SOLVING FOR HEAD 

 NO OUTPUT CONTROL FOR STRESS PERIOD    4   TIME STEP   25
 SOLVING FOR ZETA FOR LAYER     1 ZONE     2
 SOLVING FOR ZETA FOR LAYER     2 ZONE     2
 SOLVING FOR ZETA FOR LAYER     3 ZONE     2
 
 SOLVING FOR HEAD 

 NO OUTPUT CONTROL FOR STRESS PERIOD    4   TIME STEP   26
 SOLVING FOR ZETA FOR LAYER     1 ZONE     2
 SOLVING FOR ZETA FOR LAYER     2 ZONE     2
 SOLVING FOR ZETA FOR LAYER     3 ZONE     2
 
 SOLVING FOR HEAD 

 NO OUTPUT CONTROL FOR STRESS PERIOD    4   TIME STEP   27
 SOLVING FOR ZETA FOR LAYER     1 ZONE     2
 SOLVING FOR ZETA FOR LAYER     2 ZONE     2
 SOLVING FOR ZETA FOR LAYER     3 ZONE     2
 
 SOLVING FOR HEAD 

 NO OUTPUT CONTROL FOR STRESS PERIOD    4   TIME STEP   28
 SOLVING FOR ZETA FOR LAYER     1 ZONE     2
 SOLVING FOR ZETA FOR LAYER     2 ZONE     2
 SOLVING FOR ZETA FOR LAYER     3 ZONE     2
 
 SOLVING FOR HEAD 

 NO OUTPUT CONTROL FOR STRESS PERIOD    4   TIME STEP   29
 SOLVING FOR ZETA FOR LAYER     1 ZONE     2
 SOLVING FOR ZETA FOR LAYER     2 ZONE     2
 SOLVING FOR ZETA FOR LAYER     3 ZONE     2
 
 SOLVING FOR HEAD 

 NO OUTPUT CONTROL FOR STRESS PERIOD    4   TIME STEP   30
 SOLVING FOR ZETA FOR LAYER     1 ZONE     2
 SOLVING FOR ZETA FOR LAYER     2 ZONE     2
 SOLVING FOR ZETA FOR LAYER     3 ZONE     2
 
 SOLVING FOR HEAD 

 NO OUTPUT CONTROL FOR STRESS PERIOD    4   TIME STEP   31
 SOLVING FOR ZETA FOR LAYER     1 ZONE     2
 SOLVING FOR ZETA FOR LAYER     2 ZONE     2
 SOLVING FOR ZETA FOR LAYER     3 ZONE     2
 
 SOLVING FOR HEAD 

 NO OUTPUT CONTROL FOR STRESS PERIOD    4   TIME STEP   32
 SOLVING FOR ZETA FOR LAYER     1 ZONE     2
 SOLVING FOR ZETA FOR LAYER     2 ZONE     2
 SOLVING FOR ZETA FOR LAYER     3 ZONE     2
 
 SOLVING FOR HEAD 

 NO OUTPUT CONTROL FOR STRESS PERIOD    4   TIME STEP   33
 SOLVING FOR ZETA FOR LAYER     1 ZONE     2
 SOLVING FOR ZETA FOR LAYER     2 ZONE     2
 SOLVING FOR ZETA FOR LAYER     3 ZONE     2
 
 SOLVING FOR HEAD 

 NO OUTPUT CONTROL FOR STRESS PERIOD    4   TIME STEP   34
 SOLVING FOR ZETA FOR LAYER     1 ZONE     2
 SOLVING FOR ZETA FOR LAYER     2 ZONE     2
 SOLVING FOR ZETA FOR LAYER     3 ZONE     2
 
 SOLVING FOR HEAD 

 NO OUTPUT CONTROL FOR STRESS PERIOD    4   TIME STEP   35
 SOLVING FOR ZETA FOR LAYER     1 ZONE     2
 SOLVING FOR ZETA FOR LAYER     2 ZONE     2
 SOLVING FOR ZETA FOR LAYER     3 ZONE     2
 
 SOLVING FOR HEAD 

 NO OUTPUT CONTROL FOR STRESS PERIOD    4   TIME STEP   36
 SOLVING FOR ZETA FOR LAYER     1 ZONE     2
 SOLVING FOR ZETA FOR LAYER     2 ZONE     2
 SOLVING FOR ZETA FOR LAYER     3 ZONE     2
 
 SOLVING FOR HEAD 

 NO OUTPUT CONTROL FOR STRESS PERIOD    4   TIME STEP   37
 SOLVING FOR ZETA FOR LAYER     1 ZONE     2
 SOLVING FOR ZETA FOR LAYER     2 ZONE     2
 SOLVING FOR ZETA FOR LAYER     3 ZONE     2
 
 SOLVING FOR HEAD 

 NO OUTPUT CONTROL FOR STRESS PERIOD    4   TIME STEP   38
 SOLVING FOR ZETA FOR LAYER     1 ZONE     2
 SOLVING FOR ZETA FOR LAYER     2 ZONE     2
 SOLVING FOR ZETA FOR LAYER     3 ZONE     2
 
 SOLVING FOR HEAD 

 NO OUTPUT CONTROL FOR STRESS PERIOD    4   TIME STEP   39
 SOLVING FOR ZETA FOR LAYER     1 ZONE     2
 SOLVING FOR ZETA FOR LAYER     2 ZONE     2
 SOLVING FOR ZETA FOR LAYER     3 ZONE     2
 
 SOLVING FOR HEAD 

 NO OUTPUT CONTROL FOR STRESS PERIOD    4   TIME STEP   40
 SOLVING FOR ZETA FOR LAYER     1 ZONE     2
 SOLVING FOR ZETA FOR LAYER     2 ZONE     2
 SOLVING FOR ZETA FOR LAYER     3 ZONE     2
 
 SOLVING FOR HEAD 

 NO OUTPUT CONTROL FOR STRESS PERIOD    4   TIME STEP   41
 SOLVING FOR ZETA FOR LAYER     1 ZONE     2
 SOLVING FOR ZETA FOR LAYER     2 ZONE     2
 SOLVING FOR ZETA FOR LAYER     3 ZONE     2
 
 SOLVING FOR HEAD 

 NO OUTPUT CONTROL FOR STRESS PERIOD    4   TIME STEP   42
 SOLVING FOR ZETA FOR LAYER     1 ZONE     2
 SOLVING FOR ZETA FOR LAYER     2 ZONE     2
 SOLVING FOR ZETA FOR LAYER     3 ZONE     2
 
 SOLVING FOR HEAD 

 NO OUTPUT CONTROL FOR STRESS PERIOD    4   TIME STEP   43
 SOLVING FOR ZETA FOR LAYER     1 ZONE     2
 SOLVING FOR ZETA FOR LAYER     2 ZONE     2
 SOLVING FOR ZETA FOR LAYER     3 ZONE     2
 
 SOLVING FOR HEAD 

 NO OUTPUT CONTROL FOR STRESS PERIOD    4   TIME STEP   44
 SOLVING FOR ZETA FOR LAYER     1 ZONE     2
 SOLVING FOR ZETA FOR LAYER     2 ZONE     2
 SOLVING FOR ZETA FOR LAYER     3 ZONE     2
 
 SOLVING FOR HEAD 

 NO OUTPUT CONTROL FOR STRESS PERIOD    4   TIME STEP   45
 SOLVING FOR ZETA FOR LAYER     1 ZONE     2
 SOLVING FOR ZETA FOR LAYER     2 ZONE     2
 SOLVING FOR ZETA FOR LAYER     3 ZONE     2
 
 SOLVING FOR HEAD 

 NO OUTPUT CONTROL FOR STRESS PERIOD    4   TIME STEP   46
 SOLVING FOR ZETA FOR LAYER     1 ZONE     2
 SOLVING FOR ZETA FOR LAYER     2 ZONE     2
 SOLVING FOR ZETA FOR LAYER     3 ZONE     2
 
 SOLVING FOR HEAD 

 NO OUTPUT CONTROL FOR STRESS PERIOD    4   TIME STEP   47
 SOLVING FOR ZETA FOR LAYER     1 ZONE     2
 SOLVING FOR ZETA FOR LAYER     2 ZONE     2
 SOLVING FOR ZETA FOR LAYER     3 ZONE     2
 
 SOLVING FOR HEAD 

 NO OUTPUT CONTROL FOR STRESS PERIOD    4   TIME STEP   48
 SOLVING FOR ZETA FOR LAYER     1 ZONE     2
 SOLVING FOR ZETA FOR LAYER     2 ZONE     2
 SOLVING FOR ZETA FOR LAYER     3 ZONE     2
 
 SOLVING FOR HEAD 

 NO OUTPUT CONTROL FOR STRESS PERIOD    4   TIME STEP   49
 SOLVING FOR ZETA FOR LAYER     1 ZONE     2
 SOLVING FOR ZETA FOR LAYER     2 ZONE     2
 SOLVING FOR ZETA FOR LAYER     3 ZONE     2
 
 SOLVING FOR HEAD 

 NO OUTPUT CONTROL FOR STRESS PERIOD    4   TIME STEP   50
 SOLVING FOR ZETA FOR LAYER     1 ZONE     2
 SOLVING FOR ZETA FOR LAYER     2 ZONE     2
 SOLVING FOR ZETA FOR LAYER     3 ZONE     2
 
 SOLVING FOR HEAD 

 NO OUTPUT CONTROL FOR STRESS PERIOD    4   TIME STEP   51
 SOLVING FOR ZETA FOR LAYER     1 ZONE     2
 SOLVING FOR ZETA FOR LAYER     2 ZONE     2
 SOLVING FOR ZETA FOR LAYER     3 ZONE     2
 
 SOLVING FOR HEAD 

 NO OUTPUT CONTROL FOR STRESS PERIOD    4   TIME STEP   52
 SOLVING FOR ZETA FOR LAYER     1 ZONE     2
 SOLVING FOR ZETA FOR LAYER     2 ZONE     2
 SOLVING FOR ZETA FOR LAYER     3 ZONE     2
 
 SOLVING FOR HEAD 

 NO OUTPUT CONTROL FOR STRESS PERIOD    4   TIME STEP   53
 SOLVING FOR ZETA FOR LAYER     1 ZONE     2
 SOLVING FOR ZETA FOR LAYER     2 ZONE     2
 SOLVING FOR ZETA FOR LAYER     3 ZONE     2
 
 SOLVING FOR HEAD 

 NO OUTPUT CONTROL FOR STRESS PERIOD    4   TIME STEP   54
 SOLVING FOR ZETA FOR LAYER     1 ZONE     2
 SOLVING FOR ZETA FOR LAYER     2 ZONE     2
 SOLVING FOR ZETA FOR LAYER     3 ZONE     2
 
 SOLVING FOR HEAD 

 NO OUTPUT CONTROL FOR STRESS PERIOD    4   TIME STEP   55
 SOLVING FOR ZETA FOR LAYER     1 ZONE     2
 SOLVING FOR ZETA FOR LAYER     2 ZONE     2
 SOLVING FOR ZETA FOR LAYER     3 ZONE     2
 
 SOLVING FOR HEAD 

 NO OUTPUT CONTROL FOR STRESS PERIOD    4   TIME STEP   56
 SOLVING FOR ZETA FOR LAYER     1 ZONE     2
 SOLVING FOR ZETA FOR LAYER     2 ZONE     2
 SOLVING FOR ZETA FOR LAYER     3 ZONE     2
 
 SOLVING FOR HEAD 

 NO OUTPUT CONTROL FOR STRESS PERIOD    4   TIME STEP   57
 SOLVING FOR ZETA FOR LAYER     1 ZONE     2
 SOLVING FOR ZETA FOR LAYER     2 ZONE     2
 SOLVING FOR ZETA FOR LAYER     3 ZONE     2
 
 SOLVING FOR HEAD 

 NO OUTPUT CONTROL FOR STRESS PERIOD    4   TIME STEP   58
 SOLVING FOR ZETA FOR LAYER     1 ZONE     2
 SOLVING FOR ZETA FOR LAYER     2 ZONE     2
 SOLVING FOR ZETA FOR LAYER     3 ZONE     2
 
 SOLVING FOR HEAD 

 NO OUTPUT CONTROL FOR STRESS PERIOD    4   TIME STEP   59
 SOLVING FOR ZETA FOR LAYER     1 ZONE     2
 SOLVING FOR ZETA FOR LAYER     2 ZONE     2
 SOLVING FOR ZETA FOR LAYER     3 ZONE     2
 
 SOLVING FOR HEAD 

 NO OUTPUT CONTROL FOR STRESS PERIOD    4   TIME STEP   60
 SOLVING FOR ZETA FOR LAYER     1 ZONE     2
 SOLVING FOR ZETA FOR LAYER     2 ZONE     2
 SOLVING FOR ZETA FOR LAYER     3 ZONE     2
 
 SOLVING FOR HEAD 

 NO OUTPUT CONTROL FOR STRESS PERIOD    4   TIME STEP   61
 SOLVING FOR ZETA FOR LAYER     1 ZONE     2
 SOLVING FOR ZETA FOR LAYER     2 ZONE     2
 SOLVING FOR ZETA FOR LAYER     3 ZONE     2
 
 SOLVING FOR HEAD 

 NO OUTPUT CONTROL FOR STRESS PERIOD    4   TIME STEP   62
 SOLVING FOR ZETA FOR LAYER     1 ZONE     2
 SOLVING FOR ZETA FOR LAYER     2 ZONE     2
 SOLVING FOR ZETA FOR LAYER     3 ZONE     2
 
 SOLVING FOR HEAD 

 NO OUTPUT CONTROL FOR STRESS PERIOD    4   TIME STEP   63
 SOLVING FOR ZETA FOR LAYER     1 ZONE     2
 SOLVING FOR ZETA FOR LAYER     2 ZONE     2
 SOLVING FOR ZETA FOR LAYER     3 ZONE     2
 
 SOLVING FOR HEAD 

 NO OUTPUT CONTROL FOR STRESS PERIOD    4   TIME STEP   64
 SOLVING FOR ZETA FOR LAYER     1 ZONE     2
 SOLVING FOR ZETA FOR LAYER     2 ZONE     2
 SOLVING FOR ZETA FOR LAYER     3 ZONE     2
 
 SOLVING FOR HEAD 

 NO OUTPUT CONTROL FOR STRESS PERIOD    4   TIME STEP   65
 SOLVING FOR ZETA FOR LAYER     1 ZONE     2
 SOLVING FOR ZETA FOR LAYER     2 ZONE     2
 SOLVING FOR ZETA FOR LAYER     3 ZONE     2
 
 SOLVING FOR HEAD 

 NO OUTPUT CONTROL FOR STRESS PERIOD    4   TIME STEP   66
 SOLVING FOR ZETA FOR LAYER     1 ZONE     2
 SOLVING FOR ZETA FOR LAYER     2 ZONE     2
 SOLVING FOR ZETA FOR LAYER     3 ZONE     2
 
 SOLVING FOR HEAD 

 NO OUTPUT CONTROL FOR STRESS PERIOD    4   TIME STEP   67
 SOLVING FOR ZETA FOR LAYER     1 ZONE     2
 SOLVING FOR ZETA FOR LAYER     2 ZONE     2
 SOLVING FOR ZETA FOR LAYER     3 ZONE     2
 
 SOLVING FOR HEAD 

 NO OUTPUT CONTROL FOR STRESS PERIOD    4   TIME STEP   68
 SOLVING FOR ZETA FOR LAYER     1 ZONE     2
 SOLVING FOR ZETA FOR LAYER     2 ZONE     2
 SOLVING FOR ZETA FOR LAYER     3 ZONE     2
 
 SOLVING FOR HEAD 

 NO OUTPUT CONTROL FOR STRESS PERIOD    4   TIME STEP   69
 SOLVING FOR ZETA FOR LAYER     1 ZONE     2
 SOLVING FOR ZETA FOR LAYER     2 ZONE     2
 SOLVING FOR ZETA FOR LAYER     3 ZONE     2
 
 SOLVING FOR HEAD 

 NO OUTPUT CONTROL FOR STRESS PERIOD    4   TIME STEP   70
 SOLVING FOR ZETA FOR LAYER     1 ZONE     2
 SOLVING FOR ZETA FOR LAYER     2 ZONE     2
 SOLVING FOR ZETA FOR LAYER     3 ZONE     2
 
 SOLVING FOR HEAD 

 NO OUTPUT CONTROL FOR STRESS PERIOD    4   TIME STEP   71
 SOLVING FOR ZETA FOR LAYER     1 ZONE     2
 SOLVING FOR ZETA FOR LAYER     2 ZONE     2
 SOLVING FOR ZETA FOR LAYER     3 ZONE     2
 
 SOLVING FOR HEAD 

 NO OUTPUT CONTROL FOR STRESS PERIOD    4   TIME STEP   72
 SOLVING FOR ZETA FOR LAYER     1 ZONE     2
 SOLVING FOR ZETA FOR LAYER     2 ZONE     2
 SOLVING FOR ZETA FOR LAYER     3 ZONE     2
 
 SOLVING FOR HEAD 

 NO OUTPUT CONTROL FOR STRESS PERIOD    4   TIME STEP   73
 SOLVING FOR ZETA FOR LAYER     1 ZONE     2
 SOLVING FOR ZETA FOR LAYER     2 ZONE     2
 SOLVING FOR ZETA FOR LAYER     3 ZONE     2
 
 SOLVING FOR HEAD 

 NO OUTPUT CONTROL FOR STRESS PERIOD    4   TIME STEP   74
 SOLVING FOR ZETA FOR LAYER     1 ZONE     2
 SOLVING FOR ZETA FOR LAYER     2 ZONE     2
 SOLVING FOR ZETA FOR LAYER     3 ZONE     2
 
 SOLVING FOR HEAD 

 NO OUTPUT CONTROL FOR STRESS PERIOD    4   TIME STEP   75
 SOLVING FOR ZETA FOR LAYER     1 ZONE     2
 SOLVING FOR ZETA FOR LAYER     2 ZONE     2
 SOLVING FOR ZETA FOR LAYER     3 ZONE     2
 
 SOLVING FOR HEAD 

 NO OUTPUT CONTROL FOR STRESS PERIOD    4   TIME STEP   76
 SOLVING FOR ZETA FOR LAYER     1 ZONE     2
 SOLVING FOR ZETA FOR LAYER     2 ZONE     2
 SOLVING FOR ZETA FOR LAYER     3 ZONE     2
 
 SOLVING FOR HEAD 

 NO OUTPUT CONTROL FOR STRESS PERIOD    4   TIME STEP   77
 SOLVING FOR ZETA FOR LAYER     1 ZONE     2
 SOLVING FOR ZETA FOR LAYER     2 ZONE     2
 SOLVING FOR ZETA FOR LAYER     3 ZONE     2
 
 SOLVING FOR HEAD 

 NO OUTPUT CONTROL FOR STRESS PERIOD    4   TIME STEP   78
 SOLVING FOR ZETA FOR LAYER     1 ZONE     2
 SOLVING FOR ZETA FOR LAYER     2 ZONE     2
 SOLVING FOR ZETA FOR LAYER     3 ZONE     2
 
 SOLVING FOR HEAD 

 NO OUTPUT CONTROL FOR STRESS PERIOD    4   TIME STEP   79
 SOLVING FOR ZETA FOR LAYER     1 ZONE     2
 SOLVING FOR ZETA FOR LAYER     2 ZONE     2
 SOLVING FOR ZETA FOR LAYER     3 ZONE     2
 
 SOLVING FOR HEAD 

 NO OUTPUT CONTROL FOR STRESS PERIOD    4   TIME STEP   80
 SOLVING FOR ZETA FOR LAYER     1 ZONE     2
 SOLVING FOR ZETA FOR LAYER     2 ZONE     2
 SOLVING FOR ZETA FOR LAYER     3 ZONE     2
 
 SOLVING FOR HEAD 

 NO OUTPUT CONTROL FOR STRESS PERIOD    4   TIME STEP   81
 SOLVING FOR ZETA FOR LAYER     1 ZONE     2
 SOLVING FOR ZETA FOR LAYER     2 ZONE     2
 SOLVING FOR ZETA FOR LAYER     3 ZONE     2
 
 SOLVING FOR HEAD 

 NO OUTPUT CONTROL FOR STRESS PERIOD    4   TIME STEP   82
 SOLVING FOR ZETA FOR LAYER     1 ZONE     2
 SOLVING FOR ZETA FOR LAYER     2 ZONE     2
 SOLVING FOR ZETA FOR LAYER     3 ZONE     2
 
 SOLVING FOR HEAD 

 NO OUTPUT CONTROL FOR STRESS PERIOD    4   TIME STEP   83
 SOLVING FOR ZETA FOR LAYER     1 ZONE     2
 SOLVING FOR ZETA FOR LAYER     2 ZONE     2
 SOLVING FOR ZETA FOR LAYER     3 ZONE     2
 
 SOLVING FOR HEAD 

 NO OUTPUT CONTROL FOR STRESS PERIOD    4   TIME STEP   84
 SOLVING FOR ZETA FOR LAYER     1 ZONE     2
 SOLVING FOR ZETA FOR LAYER     2 ZONE     2
 SOLVING FOR ZETA FOR LAYER     3 ZONE     2
 
 SOLVING FOR HEAD 

 NO OUTPUT CONTROL FOR STRESS PERIOD    4   TIME STEP   85
 SOLVING FOR ZETA FOR LAYER     1 ZONE     2
 SOLVING FOR ZETA FOR LAYER     2 ZONE     2
 SOLVING FOR ZETA FOR LAYER     3 ZONE     2
 
 SOLVING FOR HEAD 

 NO OUTPUT CONTROL FOR STRESS PERIOD    4   TIME STEP   86
 SOLVING FOR ZETA FOR LAYER     1 ZONE     2
 SOLVING FOR ZETA FOR LAYER     2 ZONE     2
 SOLVING FOR ZETA FOR LAYER     3 ZONE     2
 
 SOLVING FOR HEAD 

 NO OUTPUT CONTROL FOR STRESS PERIOD    4   TIME STEP   87
 SOLVING FOR ZETA FOR LAYER     1 ZONE     2
 SOLVING FOR ZETA FOR LAYER     2 ZONE     2
 SOLVING FOR ZETA FOR LAYER     3 ZONE     2
 
 SOLVING FOR HEAD 

 NO OUTPUT CONTROL FOR STRESS PERIOD    4   TIME STEP   88
 SOLVING FOR ZETA FOR LAYER     1 ZONE     2
 SOLVING FOR ZETA FOR LAYER     2 ZONE     2
 SOLVING FOR ZETA FOR LAYER     3 ZONE     2
 
 SOLVING FOR HEAD 

 NO OUTPUT CONTROL FOR STRESS PERIOD    4   TIME STEP   89
 SOLVING FOR ZETA FOR LAYER     1 ZONE     2
 SOLVING FOR ZETA FOR LAYER     2 ZONE     2
 SOLVING FOR ZETA FOR LAYER     3 ZONE     2
 
 SOLVING FOR HEAD 

 NO OUTPUT CONTROL FOR STRESS PERIOD    4   TIME STEP   90
 SOLVING FOR ZETA FOR LAYER     1 ZONE     2
 SOLVING FOR ZETA FOR LAYER     2 ZONE     2
 SOLVING FOR ZETA FOR LAYER     3 ZONE     2
 
 SOLVING FOR HEAD 

 NO OUTPUT CONTROL FOR STRESS PERIOD    4   TIME STEP   91
 SOLVING FOR ZETA FOR LAYER     1 ZONE     2
 SOLVING FOR ZETA FOR LAYER     2 ZONE     2
 SOLVING FOR ZETA FOR LAYER     3 ZONE     2
 
 SOLVING FOR HEAD 

 OUTPUT CONTROL FOR STRESS PERIOD    4   TIME STEP   92
    PRINT BUDGET
    SAVE HEAD FOR ALL LAYERS
 SOLVING FOR ZETA FOR LAYER     1 ZONE     2
 SOLVING FOR ZETA FOR LAYER     2 ZONE     2
 SOLVING FOR ZETA FOR LAYER     3 ZONE     2
 UBUDSV SAVING "      ZETASRF  1" ON UNIT 55 AT TIME STEP 92, STRESS PERIOD    4


                      VOLUMETRIC SWI ZONE BUDGET FOR ENTIRE MODEL
                     AT END OF TIME STEP   92 IN STRESS PERIOD   4
                                      ZONE     1
  -----------------------------------------------------------------------------------

        CUMULATIVE VOLUMES      L**3       RATES FOR THIS TIME STEP      L**3/T
        ------------------                 ------------------------

              IN:                                      IN:
              ---                                      ---
             BOUNDARIES =   419955072.0000            BOUNDARIES =       4.3999E-02
          CONSTANT HEAD =           0.0000         CONSTANT HEAD =           0.0000
            ZONE CHANGE =    13271551.0000           ZONE CHANGE =         708.9443
       ZONE CHG TIP/TOE =   217806736.0000      ZONE CHG TIP/TOE =           8.0495
            ZONE MIXING =     1078263.7500           ZONE MIXING =           0.0000

               TOTAL IN =   652111616.0000              TOTAL IN =         717.0378

             OUT:                                     OUT:
             ----                                     ----
             BOUNDARIES =   272819904.0000            BOUNDARIES =         628.7924
          CONSTANT HEAD =           0.0000         CONSTANT HEAD =           0.0000
            ZONE CHANGE =   230906496.0000           ZONE CHANGE =          33.8555
       ZONE CHG TIP/TOE =      370995.7812      ZONE CHG TIP/TOE =           3.8494
            ZONE MIXING =    61372016.0000           ZONE MIXING =          62.6890

              TOTAL OUT =   565469440.0000             TOTAL OUT =         729.1862

               IN - OUT =    86642176.0000              IN - OUT =         -12.1484

    PERCENT DISCREPANCY =          14.23     PERCENT DISCREPANCY =          -1.68



                      VOLUMETRIC SWI ZONE BUDGET FOR ENTIRE MODEL
                     AT END OF TIME STEP   92 IN STRESS PERIOD   4
                                      ZONE     2
  -----------------------------------------------------------------------------------

        CUMULATIVE VOLUMES      L**3       RATES FOR THIS TIME STEP      L**3/T
        ------------------                 ------------------------

              IN:                                      IN:
              ---                                      ---
             BOUNDARIES =    83456832.0000            BOUNDARIES =         856.2609
          CONSTANT HEAD =           0.0000         CONSTANT HEAD =           0.0000
            ZONE CHANGE =    13005385.0000           ZONE CHANGE =         120.2065
       ZONE CHG TIP/TOE =   141113216.0000      ZONE CHG TIP/TOE =          24.8949
            ZONE MIXING =    61372016.0000           ZONE MIXING =          62.6890

               TOTAL IN =   298947456.0000              TOTAL IN =        1064.0511

             OUT:                                     OUT:
             ----                                     ----
             BOUNDARIES =   230926304.0000            BOUNDARIES =         429.7546
          CONSTANT HEAD =           0.0000         CONSTANT HEAD =           0.0000
            ZONE CHANGE =   153756592.0000           ZONE CHANGE =         613.0148
       ZONE CHG TIP/TOE =      135970.9062      ZONE CHG TIP/TOE =           4.2757
            ZONE MIXING =     1078263.7500           ZONE MIXING =           0.0000

              TOTAL OUT =   385897120.0000             TOTAL OUT =        1047.0452

               IN - OUT =   -86949664.0000              IN - OUT =          17.0060

    PERCENT DISCREPANCY =         -25.39     PERCENT DISCREPANCY =           1.61


 HEAD WILL BE SAVED ON UNIT   51 AT END OF TIME STEP   92, STRESS PERIOD    4
1
  VOLUMETRIC BUDGET FOR ENTIRE MODEL AT END OF TIME STEP   92, STRESS PERIOD   4
  ------------------------------------------------------------------------------

     CUMULATIVE VOLUMES      L**3       RATES FOR THIS TIME STEP      L**3/T
     ------------------                 ------------------------

           IN:                                      IN:
           ---                                      ---
             STORAGE =      183801.6562               STORAGE =         200.0580
       CONSTANT HEAD =           0.0000         CONSTANT HEAD =           0.0000
          SWIADDTOCH =           0.0000            SWIADDTOCH =           0.0000
               WELLS =           0.0000                 WELLS =           0.0000
     HEAD DEP BOUNDS =    73611440.0000       HEAD DEP BOUNDS =         856.2899
            RECHARGE =   429798368.0000              RECHARGE =           0.0000

            TOTAL IN =   503593600.0000              TOTAL IN =        1056.3479

          OUT:                                     OUT:
          ----                                     ----
             STORAGE =      107405.2500               STORAGE =           1.6412
       CONSTANT HEAD =           0.0000         CONSTANT HEAD =           0.0000
          SWIADDTOCH =           0.0000            SWIADDTOCH =           0.0000
               WELLS =       19051.3418                 WELLS =         103.5400
     HEAD DEP BOUNDS =   503727072.0000       HEAD DEP BOUNDS =         955.2198
            RECHARGE =           0.0000              RECHARGE =           0.0000

           TOTAL OUT =   503853536.0000             TOTAL OUT =        1060.4010

            IN - OUT =     -259936.0000              IN - OUT =          -4.0531

 PERCENT DISCREPANCY =          -0.05     PERCENT DISCREPANCY =          -0.38






         TIME SUMMARY AT END OF TIME STEP   92 IN STRESS PERIOD    4
                    SECONDS     MINUTES      HOURS       DAYS        YEARS
                    -----------------------------------------------------------
   TIME STEP LENGTH  86400.      1440.0      24.000      1.0000     2.73785E-03
 STRESS PERIOD TIME 7.94880E+06 1.32480E+05  2208.0      92.000     0.25188    
         TOTAL TIME 6.35102E+09 1.05850E+08 1.76417E+06  73507.      201.25    
1
1
                            STRESS PERIOD NO.    5, LENGTH =   273.0000    
                            -----------------------------------------------

                              NUMBER OF TIME STEPS =   273

                               MULTIPLIER FOR DELT =     1.000

                            INITIAL TIME STEP SIZE =   1.000000    

 WELL NO.  LAYER   ROW   COL   STRESS RATE         
 --------------------------------------------------
      1      1     61     33       0.000    
      2      1     59     38       0.000    
      3      2     59     43       0.000    
      4      2     57     43       0.000    
      5      2     54     36       0.000    
      6      2     52     38       0.000    
      7      2     49     48       0.000    
      8      2     45     36       0.000    
      9      2     44     38       0.000    
     10      1     43     40       0.000    
     11      2     43     49       0.000    
     12      2     40     39       0.000    
     13      3     38     43       0.000    
     14      1     37     38       0.000    
     15      2     31     47       0.000    
     16      2     27     41       0.000    

     16 WELLS

 BOUND. NO. LAYER   ROW   COL     STAGE      CONDUCTANCE         
 ----------------------------------------------------------------
      1      1      1      1      0.3710          0.6804E+06
      2      1      1      2      0.3728          0.6804E+06
      3      1      1      3      0.3752          0.6804E+06
      4      1      1      4      0.3788          0.6804E+06
      5      1      1      5      0.3831          0.6804E+06
      6      1      1      6      0.3866          0.6804E+06
      7      1      1      7      0.3899          0.6804E+06
      8      1      1      8      0.3923          0.6804E+06
      9      1      1      9      0.3929          0.6804E+06
     10      1      1     10      0.3920          0.6804E+06
     11      1      1     11      0.3898          0.6804E+06
     12      1      1     12      0.3858          0.6804E+06
     13      1      1     13      0.3804          0.6804E+06
     14      1      1     14      0.3745          0.6804E+06
     15      1      1     15      0.3653          0.6804E+06
     16      1      1     16      0.3536          0.6804E+06
     17      1      1     17      0.3377          0.6804E+06
     18      1      1     18      0.3210          0.6804E+06
     19      1      1     19      0.3060          0.6804E+06
     20      1      1     20      0.2933          0.6804E+06
     21      1      1     21      0.2859          0.6804E+06
     22      1      1     22      0.2825          0.6804E+06
     23      1      1     23      0.2793          0.6804E+06
     24      1      1     24      0.2771          0.6804E+06
     25      1      1     25      0.2757          0.6804E+06
     26      1      1     26      0.2760          0.6804E+06
     27      1      1     27      0.2781          0.6804E+06
     28      1      1     28      0.2828          0.6804E+06
     29      1      1     29      0.2895          0.6804E+06
     30      1      1     30      0.2965          0.6804E+06
     31      1      1     31      0.3052          0.6804E+06
     32      1      1     32      0.3127          0.6804E+06
     33      1      1     33      0.3202          0.6804E+06
     34      1      1     34      0.3261          0.6804E+06
     35      1      1     35      0.3301          0.6804E+06
     36      1      1     36      0.3340          0.6804E+06
     37      1      1     37      0.3365          0.6804E+06
     38      1      1     38      0.3374          0.6804E+06
     39      1      1     39      0.3370          0.6804E+06
     40      1      1     40      0.3368          0.6804E+06
     41      1      1     41      0.3368          0.6804E+06
     42      1      1     42      0.3373          0.6804E+06
     43      1      1     43      0.3383          0.6804E+06
     44      1      1     44      0.3403          0.6804E+06
     45      1      1     45      0.3423          0.6804E+06
     46      1      1     46      0.3432          0.6804E+06
     47      1      1     47      0.3432          0.6804E+06
     48      1      1     48      0.3427          0.6804E+06
     49      1      1     49      0.3409          0.6804E+06
     50      1      1     50      0.3379          0.6804E+06
     51      1      1     51      0.3343          0.6804E+06
     52      1      1     52      0.3286          0.6804E+06
     53      1      1     53      0.3224          0.6804E+06
     54      1      1     54      0.3148          0.6804E+06
     55      1      1     55      0.3072          0.6804E+06
     56      1      1     56      0.3003          0.6804E+06
     57      1      1     57      0.2926          0.6804E+06
     58      1      1     58      0.2852          0.6804E+06
     59      1      1     59      0.2786          0.6804E+06
     60      1      1     60      0.2703          0.6804E+06
     61      1      1     61      0.2632          0.6804E+06
     62      1      1     62      0.2554          0.6804E+06
     63      1      1     63      0.2480          0.6804E+06
     64      1      1     64      0.2423          0.6804E+06
     65      1      1     65      0.2365          0.6804E+06
     66      1      1     66      0.2312          0.6804E+06
     67      1      1     67      0.2269          0.6804E+06
     68      1      1     68      0.2222          0.6804E+06
     69      1      1     69      0.2181          0.6804E+06
     70      1      1     70      0.2135          0.6804E+06
     71      1      1     71      0.2088          0.6804E+06
     72      1      1     72      0.2045          0.6804E+06
     73      1      1     73      0.1995          0.6804E+06
     74      1      1     74      0.1936          0.6804E+06
     75      1      1     75      0.1881          0.6804E+06
     76      1      1     76      0.1818          0.6804E+06
     77      1      1     77      0.1766          0.6804E+06
     78      1      1     78      0.1703          0.6804E+06
     79      1      1     79      0.1635          0.6804E+06
     80      1      1     80      0.1576          0.6804E+06
     81      1      1     81      0.1510          0.6804E+06
     82      1      1     82      0.1439          0.6804E+06
     83      1      1     83      0.1376          0.6804E+06
     84      1      1     84      0.1302          0.6804E+06
     85      1      1     85      0.1231          0.6804E+06
     86      1      1     86      0.1147          0.6804E+06
     87      1      1     87      0.1067          0.6804E+06
     88      1      1     88      0.9976E-01      0.6804E+06
     89      1      1     89      0.9168E-01      0.6804E+06
     90      1      1     90      0.8364E-01      0.6804E+06
     91      1      1     91      0.7626E-01      0.6804E+06
     92      1      1     92      0.6793E-01      0.6804E+06
     93      1      1     93      0.6125E-01      0.6804E+06
     94      1      1     94      0.5478E-01      0.6804E+06
     95      1      1     95      0.4816E-01      0.6804E+06
     96      1      1     96      0.4179E-01      0.6804E+06
     97      1      1     97      0.3279E-01      0.6804E+06
     98      1      1     98      0.2161E-01      0.6804E+06
     99      1      1     99      0.7204E-02      0.6804E+06
    100      1      1    100       0.000          0.6804E+06
    101      1      2      1      0.3913          0.6804E+06
    102      1      2      2      0.3922          0.6804E+06
    103      1      2      3      0.3938          0.6804E+06
    104      1      2      4      0.3965          0.6804E+06
    105      1      2      5      0.3999          0.6804E+06
    106      1      2      6      0.4025          0.6804E+06
    107      1      2      7      0.4047          0.6804E+06
    108      1      2      8      0.4059          0.6804E+06
    109      1      2      9      0.4053          0.6804E+06
    110      1      2     10      0.4027          0.6804E+06
    111      1      2     11      0.3992          0.6804E+06
    112      1      2     12      0.3938          0.6804E+06
    113      1      2     13      0.3871          0.6804E+06
    114      1      2     14      0.3803          0.6804E+06
    115      1      2     15      0.3704          0.6804E+06
    116      1      2     16      0.3595          0.6804E+06
    117      1      2     17      0.3453          0.6804E+06
    118      1      2     18      0.3303          0.6804E+06
    119      1      2     19      0.3173          0.6804E+06
    120      1      2     20      0.3050          0.6804E+06
    121      1      2     21      0.2960          0.6804E+06
    122      1      2     22      0.2899          0.6804E+06
    123      1      2     23      0.2837          0.6804E+06
    124      1      2     24      0.2789          0.6804E+06
    125      1      2     25      0.2743          0.6804E+06
    126      1      2     26      0.2719          0.6804E+06
    127      1      2     27      0.2726          0.6804E+06
    128      1      2     28      0.2766          0.6804E+06
    129      1      2     29      0.2834          0.6804E+06
    130      1      2     30      0.2910          0.6804E+06
    131      1      2     31      0.3009          0.6804E+06
    132      1      2     32      0.3095          0.6804E+06
    133      1      2     33      0.3174          0.6804E+06
    134      1      2     34      0.3222          0.6804E+06
    135      1      2     35      0.3237          0.6804E+06
    136      1      2     36      0.3243          0.6804E+06
    137      1      2     37      0.3245          0.6804E+06
    138      1      2     38      0.3251          0.6804E+06
    139      1      2     39      0.3265          0.6804E+06
    140      1      2     40      0.3272          0.6804E+06
    141      1      2     41      0.3274          0.6804E+06
    142      1      2     42      0.3280          0.6804E+06
    143      1      2     43      0.3294          0.6804E+06
    144      1      2     44      0.3322          0.6804E+06
    145      1      2     45      0.3351          0.6804E+06
    146      1      2     46      0.3370          0.6804E+06
    147      1      2     47      0.3380          0.6804E+06
    148      1      2     48      0.3379          0.6804E+06
    149      1      2     49      0.3359          0.6804E+06
    150      1      2     50      0.3320          0.6804E+06
    151      1      2     51      0.3275          0.6804E+06
    152      1      2     52      0.3212          0.6804E+06
    153      1      2     53      0.3148          0.6804E+06
    154      1      2     54      0.3071          0.6804E+06
    155      1      2     55      0.2993          0.6804E+06
    156      1      2     56      0.2923          0.6804E+06
    157      1      2     57      0.2846          0.6804E+06
    158      1      2     58      0.2772          0.6804E+06
    159      1      2     59      0.2704          0.6804E+06
    160      1      2     60      0.2623          0.6804E+06
    161      1      2     61      0.2555          0.6804E+06
    162      1      2     62      0.2482          0.6804E+06
    163      1      2     63      0.2412          0.6804E+06
    164      1      2     64      0.2355          0.6804E+06
    165      1      2     65      0.2296          0.6804E+06
    166      1      2     66      0.2239          0.6804E+06
    167      1      2     67      0.2193          0.6804E+06
    168      1      2     68      0.2143          0.6804E+06
    169      1      2     69      0.2102          0.6804E+06
    170      1      2     70      0.2056          0.6804E+06
    171      1      2     71      0.2012          0.6804E+06
    172      1      2     72      0.1974          0.6804E+06
    173      1      2     73      0.1926          0.6804E+06
    174      1      2     74      0.1874          0.6804E+06
    175      1      2     75      0.1824          0.6804E+06
    176      1      2     76      0.1762          0.6804E+06
    177      1      2     77      0.1705          0.6804E+06
    178      1      2     78      0.1635          0.6804E+06
    179      1      2     79      0.1561          0.6804E+06
    180      1      2     80      0.1499          0.6804E+06
    181      1      2     81      0.1434          0.6804E+06
    182      1      2     82      0.1360          0.6804E+06
    183      1      2     83      0.1293          0.6804E+06
    184      1      2     84      0.1214          0.6804E+06
    185      1      2     85      0.1141          0.6804E+06
    186      1      2     86      0.1061          0.6804E+06
    187      1      2     87      0.9897E-01      0.6804E+06
    188      1      2     88      0.9295E-01      0.6804E+06
    189      1      2     89      0.8604E-01      0.6804E+06
    190      1      2     90      0.7935E-01      0.6804E+06
    191      1      2     91      0.7276E-01      0.6804E+06
    192      1      2     92      0.6489E-01      0.6804E+06
    193      1      2     93      0.5824E-01      0.6804E+06
    194      1      2     94      0.5107E-01      0.6804E+06
    195      1      2     95      0.4232E-01      0.6804E+06
    196      1      2     96      0.3331E-01      0.6804E+06
    197      1      2     97      0.2064E-01      0.6804E+06
    198      1      2     98      0.8544E-02      0.6804E+06
    199      1      2     99       0.000          0.6804E+06
    200      1      2    100     -0.5911E-01      0.6804E+06
    201      1      3      1      0.4115          0.6804E+06
    202      1      3      2      0.4113          0.6804E+06
    203      1      3      3      0.4120          0.6804E+06
    204      1      3      4      0.4138          0.6804E+06
    205      1      3      5      0.4163          0.6804E+06
    206      1      3      6      0.4181          0.6804E+06
    207      1      3      7      0.4195          0.6804E+06
    208      1      3      8      0.4196          0.6804E+06
    209      1      3      9      0.4177          0.6804E+06
    210      1      3     10      0.4133          0.6804E+06
    211      1      3     11      0.4082          0.6804E+06
    212      1      3     12      0.4012          0.6804E+06
    213      1      3     13      0.3932          0.6804E+06
    214      1      3     14      0.3854          0.6804E+06
    215      1      3     15      0.3752          0.6804E+06
    216      1      3     16      0.3652          0.6804E+06
    217      1      3     17      0.3530          0.6804E+06
    218      1      3     18      0.3404          0.6804E+06
    219      1      3     19      0.3296          0.6804E+06
    220      1      3     20      0.3182          0.6804E+06
    221      1      3     21      0.3077          0.6804E+06
    222      1      3     22      0.2987          0.6804E+06
    223      1      3     23      0.2890          0.6804E+06
    224      1      3     24      0.2810          0.6804E+06
    225      1      3     25      0.2728          0.6804E+06
    226      1      3     26      0.2669          0.6804E+06
    227      1      3     27      0.2660          0.6804E+06
    228      1      3     28      0.2689          0.6804E+06
    229      1      3     29      0.2754          0.6804E+06
    230      1      3     30      0.2834          0.6804E+06
    231      1      3     31      0.2948          0.6804E+06
    232      1      3     32      0.3052          0.6804E+06
    233      1      3     33      0.3141          0.6804E+06
    234      1      3     34      0.3172          0.6804E+06
    235      1      3     35      0.3143          0.6804E+06
    236      1      3     36      0.3098          0.6804E+06
    237      1      3     37      0.3063          0.6804E+06
    238      1      3     38      0.3061          0.6804E+06
    239      1      3     39      0.3091          0.6804E+06
    240      1      3     40      0.3112          0.6804E+06
    241      1      3     41      0.3127          0.6804E+06
    242      1      3     42      0.3144          0.6804E+06
    243      1      3     43      0.3167          0.6804E+06
    244      1      3     44      0.3204          0.6804E+06
    245      1      3     45      0.3245          0.6804E+06
    246      1      3     46      0.3277          0.6804E+06
    247      1      3     47      0.3305          0.6804E+06
    248      1      3     48      0.3315          0.6804E+06
    249      1      3     49      0.3295          0.6804E+06
    250      1      3     50      0.3247          0.6804E+06
    251      1      3     51      0.3192          0.6804E+06
    252      1      3     52      0.3122          0.6804E+06
    253      1      3     53      0.3055          0.6804E+06
    254      1      3     54      0.2977          0.6804E+06
    255      1      3     55      0.2900          0.6804E+06
    256      1      3     56      0.2831          0.6804E+06
    257      1      3     57      0.2759          0.6804E+06
    258      1      3     58      0.2683          0.6804E+06
    259      1      3     59      0.2612          0.6804E+06
    260      1      3     60      0.2535          0.6804E+06
    261      1      3     61      0.2472          0.6804E+06
    262      1      3     62      0.2403          0.6804E+06
    263      1      3     63      0.2336          0.6804E+06
    264      1      3     64      0.2280          0.6804E+06
    265      1      3     65      0.2220          0.6804E+06
    266      1      3     66      0.2162          0.6804E+06
    267      1      3     67      0.2112          0.6804E+06
    268      1      3     68      0.2060          0.6804E+06
    269      1      3     69      0.2019          0.6804E+06
    270      1      3     70      0.1975          0.6804E+06
    271      1      3     71      0.1934          0.6804E+06
    272      1      3     72      0.1897          0.6804E+06
    273      1      3     73      0.1853          0.6804E+06
    274      1      3     74      0.1810          0.6804E+06
    275      1      3     75      0.1767          0.6804E+06
    276      1      3     76      0.1706          0.6804E+06
    277      1      3     77      0.1643          0.6804E+06
    278      1      3     78      0.1565          0.6804E+06
    279      1      3     79      0.1488          0.6804E+06
    280      1      3     80      0.1425          0.6804E+06
    281      1      3     81      0.1357          0.6804E+06
    282      1      3     82      0.1279          0.6804E+06
    283      1      3     83      0.1208          0.6804E+06
    284      1      3     84      0.1125          0.6804E+06
    285      1      3     85      0.1051          0.6804E+06
    286      1      3     86      0.9746E-01      0.6804E+06
    287      1      3     87      0.9132E-01      0.6804E+06
    288      1      3     88      0.8641E-01      0.6804E+06
    289      1      3     89      0.8056E-01      0.6804E+06
    290      1      3     90      0.7421E-01      0.6804E+06
    291      1      3     91      0.6800E-01      0.6804E+06
    292      1      3     92      0.6032E-01      0.6804E+06
    293      1      3     93      0.5337E-01      0.6804E+06
    294      1      3     94      0.4518E-01      0.6804E+06
    295      1      3     95      0.3411E-01      0.6804E+06
    296      1      3     96      0.2197E-01      0.6804E+06
    297      1      3     97      0.8253E-02      0.6804E+06
    298      1      3     98       0.000          0.6804E+06
    299      1      3     99     -0.5216E-01      0.6804E+06
    300      1      3    100     -0.8953E-01      0.6804E+06
    301      1      4      1      0.4282          0.6804E+06
    302      1      4      2      0.4272          0.6804E+06
    303      1      4      3      0.4272          0.6804E+06
    304      1      4      4      0.4282          0.6804E+06
    305      1      4      5      0.4300          0.6804E+06
    306      1      4      6      0.4313          0.6804E+06
    307      1      4      7      0.4321          0.6804E+06
    308      1      4      8      0.4313          0.6804E+06
    309      1      4      9      0.4281          0.6804E+06
    310      1      4     10      0.4220          0.6804E+06
    311      1      4     11      0.4155          0.6804E+06
    312      1      4     12      0.4071          0.6804E+06
    313      1      4     13      0.3978          0.6804E+06
    314      1      4     14      0.3892          0.6804E+06
    315      1      4     15      0.3790          0.6804E+06
    316      1      4     16      0.3698          0.6804E+06
    317      1      4     17      0.3590          0.6804E+06
    318      1      4     18      0.3485          0.6804E+06
    319      1      4     19      0.3396          0.6804E+06
    320      1      4     20      0.3291          0.6804E+06
    321      1      4     21      0.3177          0.6804E+06
    322      1      4     22      0.3063          0.6804E+06
    323      1      4     23      0.2937          0.6804E+06
    324      1      4     24      0.2832          0.6804E+06
    325      1      4     25      0.2722          0.6804E+06
    326      1      4     26      0.2635          0.6804E+06
    327      1      4     27      0.2601          0.6804E+06
    328      1      4     28      0.2609          0.6804E+06
    329      1      4     29      0.2663          0.6804E+06
    330      1      4     30      0.2744          0.6804E+06
    331      1      4     31      0.2869          0.6804E+06
    332      1      4     32      0.2993          0.6804E+06
    333      1      4     33      0.3096          0.6804E+06
    334      1      4     34      0.3110          0.6804E+06
    335      1      4     35      0.3032          0.6804E+06
    336      1      4     36      0.2932          0.6804E+06
    337      1      4     37      0.2859          0.6804E+06
    338      1      4     38      0.2843          0.6804E+06
    339      1      4     39      0.2885          0.6804E+06
    340      1      4     40      0.2922          0.6804E+06
    341      1      4     41      0.2958          0.6804E+06
    342      1      4     42      0.2994          0.6804E+06
    343      1      4     43      0.3028          0.6804E+06
    344      1      4     44      0.3075          0.6804E+06
    345      1      4     45      0.3127          0.6804E+06
    346      1      4     46      0.3173          0.6804E+06
    347      1      4     47      0.3220          0.6804E+06
    348      1      4     48      0.3246          0.6804E+06
    349      1      4     49      0.3225          0.6804E+06
    350      1      4     50      0.3165          0.6804E+06
    351      1      4     51      0.3102          0.6804E+06
    352      1      4     52      0.3029          0.6804E+06
    353      1      4     53      0.2960          0.6804E+06
    354      1      4     54      0.2882          0.6804E+06
    355      1      4     55      0.2807          0.6804E+06
    356      1      4     56      0.2739          0.6804E+06
    357      1      4     57      0.2670          0.6804E+06
    358      1      4     58      0.2597          0.6804E+06
    359      1      4     59      0.2527          0.6804E+06
    360      1      4     60      0.2454          0.6804E+06
    361      1      4     61      0.2396          0.6804E+06
    362      1      4     62      0.2330          0.6804E+06
    363      1      4     63      0.2264          0.6804E+06
    364      1      4     64      0.2209          0.6804E+06
    365      1      4     65      0.2149          0.6804E+06
    366      1      4     66      0.2088          0.6804E+06
    367      1      4     67      0.2037          0.6804E+06
    368      1      4     68      0.1984          0.6804E+06
    369      1      4     69      0.1942          0.6804E+06
    370      1      4     70      0.1899          0.6804E+06
    371      1      4     71      0.1859          0.6804E+06
    372      1      4     72      0.1821          0.6804E+06
    373      1      4     73      0.1782          0.6804E+06
    374      1      4     74      0.1748          0.6804E+06
    375      1      4     75      0.1712          0.6804E+06
    376      1      4     76      0.1655          0.6804E+06
    377      1      4     77      0.1584          0.6804E+06
    378      1      4     78      0.1499          0.6804E+06
    379      1      4     79      0.1419          0.6804E+06
    380      1      4     80      0.1356          0.6804E+06
    381      1      4     81      0.1282          0.6804E+06
    382      1      4     82      0.1203          0.6804E+06
    383      1      4     83      0.1132          0.6804E+06
    384      1      4     84      0.1050          0.6804E+06
    385      1      4     85      0.9767E-01      0.6804E+06
    386      1      4     86      0.9029E-01      0.6804E+06
    387      1      4     87      0.8503E-01      0.6804E+06
    388      1      4     88      0.8086E-01      0.6804E+06
    389      1      4     89      0.7507E-01      0.6804E+06
    390      1      4     90      0.6880E-01      0.6804E+06
    391      1      4     91      0.6320E-01      0.6804E+06
    392      1      4     92      0.5551E-01      0.6804E+06
    393      1      4     93      0.4725E-01      0.6804E+06
    394      1      4     94      0.3691E-01      0.6804E+06
    395      1      4     95      0.2342E-01      0.6804E+06
    396      1      4     96      0.1036E-01      0.6804E+06
    397      1      4     97       0.000          0.6804E+06
    398      1      4     98     -0.4253E-01      0.6804E+06
    399      1      4     99     -0.8103E-01      0.6804E+06
    400      1      4    100     -0.1109          0.6804E+06
    401      1      5      1      0.4453          0.6804E+06
    402      1      5      2      0.4436          0.6804E+06
    403      1      5      3      0.4430          0.6804E+06
    404      1      5      4      0.4434          0.6804E+06
    405      1      5      5      0.4446          0.6804E+06
    406      1      5      6      0.4452          0.6804E+06
    407      1      5      7      0.4452          0.6804E+06
    408      1      5      8      0.4432          0.6804E+06
    409      1      5      9      0.4387          0.6804E+06
    410      1      5     10      0.4308          0.6804E+06
    411      1      5     11      0.4229          0.6804E+06
    412      1      5     12      0.4129          0.6804E+06
    413      1      5     13      0.4023          0.6804E+06
    414      1      5     14      0.3928          0.6804E+06
    415      1      5     15      0.3826          0.6804E+06
    416      1      5     16      0.3740          0.6804E+06
    417      1      5     17      0.3645          0.6804E+06
    418      1      5     18      0.3556          0.6804E+06
    419      1      5     19      0.3482          0.6804E+06
    420      1      5     20      0.3386          0.6804E+06
    421      1      5     21      0.3264          0.6804E+06
    422      1      5     22      0.3132          0.6804E+06
    423      1      5     23      0.2982          0.6804E+06
    424      1      5     24      0.2856          0.6804E+06
    425      1      5     25      0.2722          0.6804E+06
    426      1      5     26      0.2606          0.6804E+06
    427      1      5     27      0.2535          0.6804E+06
    428      1      5     28      0.2501          0.6804E+06
    429      1      5     29      0.2527          0.6804E+06
    430      1      5     30      0.2603          0.6804E+06
    431      1      5     31      0.2733          0.6804E+06
    432      1      5     32      0.2867          0.6804E+06
    433      1      5     33      0.2980          0.6804E+06
    434      1      5     34      0.2977          0.6804E+06
    435      1      5     35      0.2846          0.6804E+06
    436      1      5     36      0.2692          0.6804E+06
    437      1      5     37      0.2578          0.6804E+06
    438      1      5     38      0.2544          0.6804E+06
    439      1      5     39      0.2603          0.6804E+06
    440      1      5     40      0.2662          0.6804E+06
    441      1      5     41      0.2728          0.6804E+06
    442      1      5     42      0.2792          0.6804E+06
    443      1      5     43      0.2844          0.6804E+06
    444      1      5     44      0.2903          0.6804E+06
    445      1      5     45      0.2966          0.6804E+06
    446      1      5     46      0.3023          0.6804E+06
    447      1      5     47      0.3086          0.6804E+06
    448      1      5     48      0.3128          0.6804E+06
    449      1      5     49      0.3109          0.6804E+06
    450      1      5     50      0.3040          0.6804E+06
    451      1      5     51      0.2975          0.6804E+06
    452      1      5     52      0.2902          0.6804E+06
    453      1      5     53      0.2835          0.6804E+06
    454      1      5     54      0.2760          0.6804E+06
    455      1      5     55      0.2686          0.6804E+06
    456      1      5     56      0.2622          0.6804E+06
    457      1      5     57      0.2559          0.6804E+06
    458      1      5     58      0.2489          0.6804E+06
    459      1      5     59      0.2421          0.6804E+06
    460      1      5     60      0.2355          0.6804E+06
    461      1      5     61      0.2301          0.6804E+06
    462      1      5     62      0.2240          0.6804E+06
    463      1      5     63      0.2177          0.6804E+06
    464      1      5     64      0.2123          0.6804E+06
    465      1      5     65      0.2062          0.6804E+06
    466      1      5     66      0.1997          0.6804E+06
    467      1      5     67      0.1943          0.6804E+06
    468      1      5     68      0.1890          0.6804E+06
    469      1      5     69      0.1849          0.6804E+06
    470      1      5     70      0.1802          0.6804E+06
    471      1      5     71      0.1760          0.6804E+06
    472      1      5     72      0.1725          0.6804E+06
    473      1      5     73      0.1692          0.6804E+06
    474      1      5     74      0.1664          0.6804E+06
    475      1      5     75      0.1635          0.6804E+06
    476      1      5     76      0.1581          0.6804E+06
    477      1      5     77      0.1502          0.6804E+06
    478      1      5     78      0.1412          0.6804E+06
    479      1      5     79      0.1330          0.6804E+06
    480      1      5     80      0.1265          0.6804E+06
    481      1      5     81      0.1188          0.6804E+06
    482      1      5     82      0.1113          0.6804E+06
    483      1      5     83      0.1048          0.6804E+06
    484      1      5     84      0.9716E-01      0.6804E+06
    485      1      5     85      0.9037E-01      0.6804E+06
    486      1      5     86      0.8347E-01      0.6804E+06
    487      1      5     87      0.7887E-01      0.6804E+06
    488      1      5     88      0.7524E-01      0.6804E+06
    489      1      5     89      0.6925E-01      0.6804E+06
    490      1      5     90      0.6233E-01      0.6804E+06
    491      1      5     91      0.5570E-01      0.6804E+06
    492      1      5     92      0.4648E-01      0.6804E+06
    493      1      5     93      0.3665E-01      0.6804E+06
    494      1      5     94      0.2376E-01      0.6804E+06
    495      1      5     95      0.8694E-02      0.6804E+06
    496      1      5     96       0.000          0.6804E+06
    497      1      5     97     -0.4517E-01      0.6804E+06
    498      1      5     98     -0.7794E-01      0.6804E+06
    499      1      5     99     -0.1048          0.6804E+06
    500      1      5    100     -0.1273          0.6804E+06
    501      1      6      1      0.4592          0.6804E+06
    502      1      6      2      0.4575          0.6804E+06
    503      1      6      3      0.4568          0.6804E+06
    504      1      6      4      0.4569          0.6804E+06
    505      1      6      5      0.4576          0.6804E+06
    506      1      6      6      0.4576          0.6804E+06
    507      1      6      7      0.4564          0.6804E+06
    508      1      6      8      0.4529          0.6804E+06
    509      1      6      9      0.4471          0.6804E+06
    510      1      6     10      0.4379          0.6804E+06
    511      1      6     11      0.4288          0.6804E+06
    512      1      6     12      0.4175          0.6804E+06
    513      1      6     13      0.4057          0.6804E+06
    514      1      6     14      0.3954          0.6804E+06
    515      1      6     15      0.3848          0.6804E+06
    516      1      6     16      0.3764          0.6804E+06
    517      1      6     17      0.3675          0.6804E+06
    518      1      6     18      0.3596          0.6804E+06
    519      1      6     19      0.3529          0.6804E+06
    520      1      6     20      0.3437          0.6804E+06
    521      1      6     21      0.3313          0.6804E+06
    522      1      6     22      0.3174          0.6804E+06
    523      1      6     23      0.3012          0.6804E+06
    524      1      6     24      0.2873          0.6804E+06
    525      1      6     25      0.2721          0.6804E+06
    526      1      6     26      0.2579          0.6804E+06
    527      1      6     27      0.2468          0.6804E+06
    528      1      6     28      0.2375          0.6804E+06
    529      1      6     29      0.2358          0.6804E+06
    530      1      6     30      0.2433          0.6804E+06
    531      1      6     31      0.2552          0.6804E+06
    532      1      6     32      0.2661          0.6804E+06
    533      1      6     33      0.2736          0.6804E+06
    534      1      6     34      0.2703          0.6804E+06
    535      1      6     35      0.2579          0.6804E+06
    536      1      6     36      0.2425          0.6804E+06
    537      1      6     37      0.2308          0.6804E+06
    538      1      6     38      0.2276          0.6804E+06
    539      1      6     39      0.2336          0.6804E+06
    540      1      6     40      0.2408          0.6804E+06
    541      1      6     41      0.2494          0.6804E+06
    542      1      6     42      0.2578          0.6804E+06
    543      1      6     43      0.2642          0.6804E+06
    544      1      6     44      0.2710          0.6804E+06
    545      1      6     45      0.2777          0.6804E+06
    546      1      6     46      0.2835          0.6804E+06
    547      1      6     47      0.2896          0.6804E+06
    548      1      6     48      0.2936          0.6804E+06
    549      1      6     49      0.2927          0.6804E+06
    550      1      6     50      0.2871          0.6804E+06
    551      1      6     51      0.2816          0.6804E+06
    552      1      6     52      0.2751          0.6804E+06
    553      1      6     53      0.2692          0.6804E+06
    554      1      6     54      0.2623          0.6804E+06
    555      1      6     55      0.2554          0.6804E+06
    556      1      6     56      0.2499          0.6804E+06
    557      1      6     57      0.2436          0.6804E+06
    558      1      6     58      0.2368          0.6804E+06
    559      1      6     59      0.2306          0.6804E+06
    560      1      6     60      0.2248          0.6804E+06
    561      1      6     61      0.2198          0.6804E+06
    562      1      6     62      0.2142          0.6804E+06
    563      1      6     63      0.2083          0.6804E+06
    564      1      6     64      0.2030          0.6804E+06
    565      1      6     65      0.1966          0.6804E+06
    566      1      6     66      0.1899          0.6804E+06
    567      1      6     67      0.1844          0.6804E+06
    568      1      6     68      0.1791          0.6804E+06
    569      1      6     69      0.1746          0.6804E+06
    570      1      6     70      0.1696          0.6804E+06
    571      1      6     71      0.1653          0.6804E+06
    572      1      6     72      0.1621          0.6804E+06
    573      1      6     73      0.1586          0.6804E+06
    574      1      6     74      0.1553          0.6804E+06
    575      1      6     75      0.1518          0.6804E+06
    576      1      6     76      0.1462          0.6804E+06
    577      1      6     77      0.1390          0.6804E+06
    578      1      6     78      0.1307          0.6804E+06
    579      1      6     79      0.1224          0.6804E+06
    580      1      6     80      0.1156          0.6804E+06
    581      1      6     81      0.1086          0.6804E+06
    582      1      6     82      0.1021          0.6804E+06
    583      1      6     83      0.9642E-01      0.6804E+06
    584      1      6     84      0.8988E-01      0.6804E+06
    585      1      6     85      0.8392E-01      0.6804E+06
    586      1      6     86      0.7780E-01      0.6804E+06
    587      1      6     87      0.7317E-01      0.6804E+06
    588      1      6     88      0.6907E-01      0.6804E+06
    589      1      6     89      0.6223E-01      0.6804E+06
    590      1      6     90      0.5410E-01      0.6804E+06
    591      1      6     91      0.4560E-01      0.6804E+06
    592      1      6     92      0.3384E-01      0.6804E+06
    593      1      6     93      0.2190E-01      0.6804E+06
    594      1      6     94      0.7307E-02      0.6804E+06
    595      1      6     95       0.000          0.6804E+06
    596      1      6     96     -0.4403E-01      0.6804E+06
    597      1      6     97     -0.7934E-01      0.6804E+06
    598      1      6     98     -0.1005          0.6804E+06
    599      1      6     99     -0.1220          0.6804E+06
    600      1      6    100     -0.1407          0.6804E+06
    601      1      7      1      0.4692          0.6804E+06
    602      1      7      2      0.4678          0.6804E+06
    603      1      7      3      0.4673          0.6804E+06
    604      1      7      4      0.4673          0.6804E+06
    605      1      7      5      0.4678          0.6804E+06
    606      1      7      6      0.4675          0.6804E+06
    607      1      7      7      0.4654          0.6804E+06
    608      1      7      8      0.4607          0.6804E+06
    609      1      7      9      0.4535          0.6804E+06
    610      1      7     10      0.4428          0.6804E+06
    611      1      7     11      0.4324          0.6804E+06
    612      1      7     12      0.4200          0.6804E+06
    613      1      7     13      0.4075          0.6804E+06
    614      1      7     14      0.3967          0.6804E+06
    615      1      7     15      0.3853          0.6804E+06
    616      1      7     16      0.3763          0.6804E+06
    617      1      7     17      0.3674          0.6804E+06
    618      1      7     18      0.3599          0.6804E+06
    619      1      7     19      0.3536          0.6804E+06
    620      1      7     20      0.3446          0.6804E+06
    621      1      7     21      0.3322          0.6804E+06
    622      1      7     22      0.3185          0.6804E+06
    623      1      7     23      0.3020          0.6804E+06
    624      1      7     24      0.2876          0.6804E+06
    625      1      7     25      0.2716          0.6804E+06
    626      1      7     26      0.2556          0.6804E+06
    627      1      7     27      0.2417          0.6804E+06
    628      1      7     28      0.2279          0.6804E+06
    629      1      7     29      0.2224          0.6804E+06
    630      1      7     30      0.2290          0.6804E+06
    631      1      7     31      0.2387          0.6804E+06
    632      1      7     32      0.2458          0.6804E+06
    633      1      7     33      0.2490          0.6804E+06
    634      1      7     34      0.2435          0.6804E+06
    635      1      7     35      0.2324          0.6804E+06
    636      1      7     36      0.2182          0.6804E+06
    637      1      7     37      0.2076          0.6804E+06
    638      1      7     38      0.2055          0.6804E+06
    639      1      7     39      0.2120          0.6804E+06
    640      1      7     40      0.2202          0.6804E+06
    641      1      7     41      0.2302          0.6804E+06
    642      1      7     42      0.2396          0.6804E+06
    643      1      7     43      0.2465          0.6804E+06
    644      1      7     44      0.2532          0.6804E+06
    645      1      7     45      0.2596          0.6804E+06
    646      1      7     46      0.2646          0.6804E+06
    647      1      7     47      0.2694          0.6804E+06
    648      1      7     48      0.2724          0.6804E+06
    649      1      7     49      0.2725          0.6804E+06
    650      1      7     50      0.2693          0.6804E+06
    651      1      7     51      0.2655          0.6804E+06
    652      1      7     52      0.2603          0.6804E+06
    653      1      7     53      0.2552          0.6804E+06
    654      1      7     54      0.2492          0.6804E+06
    655      1      7     55      0.2433          0.6804E+06
    656      1      7     56      0.2387          0.6804E+06
    657      1      7     57      0.2320          0.6804E+06
    658      1      7     58      0.2252          0.6804E+06
    659      1      7     59      0.2201          0.6804E+06
    660      1      7     60      0.2147          0.6804E+06
    661      1      7     61      0.2102          0.6804E+06
    662      1      7     62      0.2050          0.6804E+06
    663      1      7     63      0.1995          0.6804E+06
    664      1      7     64      0.1944          0.6804E+06
    665      1      7     65      0.1876          0.6804E+06
    666      1      7     66      0.1807          0.6804E+06
    667      1      7     67      0.1752          0.6804E+06
    668      1      7     68      0.1696          0.6804E+06
    669      1      7     69      0.1648          0.6804E+06
    670      1      7     70      0.1599          0.6804E+06
    671      1      7     71      0.1556          0.6804E+06
    672      1      7     72      0.1519          0.6804E+06
    673      1      7     73      0.1477          0.6804E+06
    674      1      7     74      0.1436          0.6804E+06
    675      1      7     75      0.1396          0.6804E+06
    676      1      7     76      0.1340          0.6804E+06
    677      1      7     77      0.1278          0.6804E+06
    678      1      7     78      0.1201          0.6804E+06
    679      1      7     79      0.1119          0.6804E+06
    680      1      7     80      0.1052          0.6804E+06
    681      1      7     81      0.9924E-01      0.6804E+06
    682      1      7     82      0.9380E-01      0.6804E+06
    683      1      7     83      0.8900E-01      0.6804E+06
    684      1      7     84      0.8319E-01      0.6804E+06
    685      1      7     85      0.7770E-01      0.6804E+06
    686      1      7     86      0.7259E-01      0.6804E+06
    687      1      7     87      0.6745E-01      0.6804E+06
    688      1      7     88      0.6189E-01      0.6804E+06
    689      1      7     89      0.5383E-01      0.6804E+06
    690      1      7     90      0.4454E-01      0.6804E+06
    691      1      7     91      0.3432E-01      0.6804E+06
    692      1      7     92      0.1993E-01      0.6804E+06
    693      1      7     93      0.6895E-02      0.6804E+06
    694      1      7     94       0.000          0.6804E+06
    695      1      7     95       0.000          0.6804E+06
    696      1      7     96     -0.7501E-01      0.6804E+06
    697      1      7     97     -0.9975E-01      0.6804E+06
    698      1      7     98     -0.1192          0.6804E+06
    699      1      7     99     -0.1401          0.6804E+06
    700      1      7    100     -0.1727          0.6804E+06
    701      1      8      1      0.4782          0.6804E+06
    702      1      8      2      0.4776          0.6804E+06
    703      1      8      3      0.4773          0.6804E+06
    704      1      8      4      0.4775          0.6804E+06
    705      1      8      5      0.4779          0.6804E+06
    706      1      8      6      0.4775          0.6804E+06
    707      1      8      7      0.4750          0.6804E+06
    708      1      8      8      0.4691          0.6804E+06
    709      1      8      9      0.4599          0.6804E+06
    710      1      8     10      0.4463          0.6804E+06
    711      1      8     11      0.4339          0.6804E+06
    712      1      8     12      0.4201          0.6804E+06
    713      1      8     13      0.4072          0.6804E+06
    714      1      8     14      0.3957          0.6804E+06
    715      1      8     15      0.3828          0.6804E+06
    716      1      8     16      0.3726          0.6804E+06
    717      1      8     17      0.3634          0.6804E+06
    718      1      8     18      0.3565          0.6804E+06
    719      1      8     19      0.3515          0.6804E+06
    720      1      8     20      0.3437          0.6804E+06
    721      1      8     21      0.3314          0.6804E+06
    722      1      8     22      0.3171          0.6804E+06
    723      1      8     23      0.3002          0.6804E+06
    724      1      8     24      0.2859          0.6804E+06
    725      1      8     25      0.2702          0.6804E+06
    726      1      8     26      0.2537          0.6804E+06
    727      1      8     27      0.2385          0.6804E+06
    728      1      8     28      0.2238          0.6804E+06
    729      1      8     29      0.2161          0.6804E+06
    730      1      8     30      0.2177          0.6804E+06
    731      1      8     31      0.2223          0.6804E+06
    732      1      8     32      0.2251          0.6804E+06
    733      1      8     33      0.2242          0.6804E+06
    734      1      8     34      0.2165          0.6804E+06
    735      1      8     35      0.2050          0.6804E+06
    736      1      8     36      0.1907          0.6804E+06
    737      1      8     37      0.1806          0.6804E+06
    738      1      8     38      0.1804          0.6804E+06
    739      1      8     39      0.1894          0.6804E+06
    740      1      8     40      0.1993          0.6804E+06
    741      1      8     41      0.2107          0.6804E+06
    742      1      8     42      0.2206          0.6804E+06
    743      1      8     43      0.2273          0.6804E+06
    744      1      8     44      0.2332          0.6804E+06
    745      1      8     45      0.2384          0.6804E+06
    746      1      8     46      0.2423          0.6804E+06
    747      1      8     47      0.2454          0.6804E+06
    748      1      8     48      0.2477          0.6804E+06
    749      1      8     49      0.2489          0.6804E+06
    750      1      8     50      0.2478          0.6804E+06
    751      1      8     51      0.2458          0.6804E+06
    752      1      8     52      0.2425          0.6804E+06
    753      1      8     53      0.2386          0.6804E+06
    754      1      8     54      0.2335          0.6804E+06
    755      1      8     55      0.2283          0.6804E+06
    756      1      8     56      0.2247          0.6804E+06
    757      1      8     57      0.2183          0.6804E+06
    758      1      8     58      0.2117          0.6804E+06
    759      1      8     59      0.2076          0.6804E+06
    760      1      8     60      0.2026          0.6804E+06
    761      1      8     61      0.1985          0.6804E+06
    762      1      8     62      0.1937          0.6804E+06
    763      1      8     63      0.1886          0.6804E+06
    764      1      8     64      0.1836          0.6804E+06
    765      1      8     65      0.1765          0.6804E+06
    766      1      8     66      0.1693          0.6804E+06
    767      1      8     67      0.1637          0.6804E+06
    768      1      8     68      0.1579          0.6804E+06
    769      1      8     69      0.1530          0.6804E+06
    770      1      8     70      0.1482          0.6804E+06
    771      1      8     71      0.1438          0.6804E+06
    772      1      8     72      0.1393          0.6804E+06
    773      1      8     73      0.1341          0.6804E+06
    774      1      8     74      0.1293          0.6804E+06
    775      1      8     75      0.1250          0.6804E+06
    776      1      8     76      0.1197          0.6804E+06
    777      1      8     77      0.1147          0.6804E+06
    778      1      8     78      0.1079          0.6804E+06
    779      1      8     79      0.1000          0.6804E+06
    780      1      8     80      0.9346E-01      0.6804E+06
    781      1      8     81      0.8885E-01      0.6804E+06
    782      1      8     82      0.8443E-01      0.6804E+06
    783      1      8     83      0.8025E-01      0.6804E+06
    784      1      8     84      0.7495E-01      0.6804E+06
    785      1      8     85      0.6975E-01      0.6804E+06
    786      1      8     86      0.6418E-01      0.6804E+06
    787      1      8     87      0.5803E-01      0.6804E+06
    788      1      8     88      0.5140E-01      0.6804E+06
    789      1      8     89      0.4222E-01      0.6804E+06
    790      1      8     90      0.3136E-01      0.6804E+06
    791      1      8     91      0.1844E-01      0.6804E+06
    792      1      8     92      0.1865E-02      0.6804E+06
    793      1      8     93       0.000          0.6804E+06
    794      1      8     94       0.000          0.6804E+06
    795      1      8     95     -0.8038E-01      0.6804E+06
    796      1      8     96     -0.1007          0.6804E+06
    797      1      8     97     -0.1204          0.6804E+06
    798      1      8     98     -0.1363          0.6804E+06
    799      1      8     99     -0.1683          0.6804E+06
    800      1      8    100     -0.2581          0.6804E+06
    801      1      9      1      0.4846          0.6804E+06
    802      1      9      2      0.4845          0.6804E+06
    803      1      9      3      0.4845          0.6804E+06
    804      1      9      4      0.4848          0.6804E+06
    805      1      9      5      0.4851          0.6804E+06
    806      1      9      6      0.4846          0.6804E+06
    807      1      9      7      0.4824          0.6804E+06
    808      1      9      8      0.4759          0.6804E+06
    809      1      9      9      0.4639          0.6804E+06
    810      1      9     10      0.4469          0.6804E+06
    811      1      9     11      0.4321          0.6804E+06
    812      1      9     12      0.4168          0.6804E+06
    813      1      9     13      0.4038          0.6804E+06
    814      1      9     14      0.3913          0.6804E+06
    815      1      9     15      0.3767          0.6804E+06
    816      1      9     16      0.3652          0.6804E+06
    817      1      9     17      0.3556          0.6804E+06
    818      1      9     18      0.3493          0.6804E+06
    819      1      9     19      0.3456          0.6804E+06
    820      1      9     20      0.3394          0.6804E+06
    821      1      9     21      0.3271          0.6804E+06
    822      1      9     22      0.3120          0.6804E+06
    823      1      9     23      0.2950          0.6804E+06
    824      1      9     24      0.2811          0.6804E+06
    825      1      9     25      0.2665          0.6804E+06
    826      1      9     26      0.2508          0.6804E+06
    827      1      9     27      0.2357          0.6804E+06
    828      1      9     28      0.2211          0.6804E+06
    829      1      9     29      0.2124          0.6804E+06
    830      1      9     30      0.2106          0.6804E+06
    831      1      9     31      0.2111          0.6804E+06
    832      1      9     32      0.2110          0.6804E+06
    833      1      9     33      0.2077          0.6804E+06
    834      1      9     34      0.1986          0.6804E+06
    835      1      9     35      0.1858          0.6804E+06
    836      1      9     36      0.1688          0.6804E+06
    837      1      9     37      0.1574          0.6804E+06
    838      1      9     38      0.1597          0.6804E+06
    839      1      9     39      0.1728          0.6804E+06
    840      1      9     40      0.1848          0.6804E+06
    841      1      9     41      0.1968          0.6804E+06
    842      1      9     42      0.2062          0.6804E+06
    843      1      9     43      0.2122          0.6804E+06
    844      1      9     44      0.2168          0.6804E+06
    845      1      9     45      0.2205          0.6804E+06
    846      1      9     46      0.2230          0.6804E+06
    847      1      9     47      0.2249          0.6804E+06
    848      1      9     48      0.2270          0.6804E+06
    849      1      9     49      0.2288          0.6804E+06
    850      1      9     50      0.2291          0.6804E+06
    851      1      9     51      0.2283          0.6804E+06
    852      1      9     52      0.2264          0.6804E+06
    853      1      9     53      0.2234          0.6804E+06
    854      1      9     54      0.2192          0.6804E+06
    855      1      9     55      0.2146          0.6804E+06
    856      1      9     56      0.2109          0.6804E+06
    857      1      9     57      0.2055          0.6804E+06
    858      1      9     58      0.2002          0.6804E+06
    859      1      9     59      0.1961          0.6804E+06
    860      1      9     60      0.1912          0.6804E+06
    861      1      9     61      0.1874          0.6804E+06
    862      1      9     62      0.1830          0.6804E+06
    863      1      9     63      0.1778          0.6804E+06
    864      1      9     64      0.1726          0.6804E+06
    865      1      9     65      0.1657          0.6804E+06
    866      1      9     66      0.1583          0.6804E+06
    867      1      9     67      0.1525          0.6804E+06
    868      1      9     68      0.1473          0.6804E+06
    869      1      9     69      0.1425          0.6804E+06
    870      1      9     70      0.1372          0.6804E+06
    871      1      9     71      0.1322          0.6804E+06
    872      1      9     72      0.1275          0.6804E+06
    873      1      9     73      0.1217          0.6804E+06
    874      1      9     74      0.1164          0.6804E+06
    875      1      9     75      0.1121          0.6804E+06
    876      1      9     76      0.1077          0.6804E+06
    877      1      9     77      0.1036          0.6804E+06
    878      1      9     78      0.9777E-01      0.6804E+06
    879      1      9     79      0.9066E-01      0.6804E+06
    880      1      9     80      0.8461E-01      0.6804E+06
    881      1      9     81      0.8050E-01      0.6804E+06
    882      1      9     82      0.7650E-01      0.6804E+06
    883      1      9     83      0.7250E-01      0.6804E+06
    884      1      9     84      0.6717E-01      0.6804E+06
    885      1      9     85      0.6218E-01      0.6804E+06
    886      1      9     86      0.5563E-01      0.6804E+06
    887      1      9     87      0.4796E-01      0.6804E+06
    888      1      9     88      0.3998E-01      0.6804E+06
    889      1      9     89      0.2944E-01      0.6804E+06
    890      1      9     90      0.1802E-01      0.6804E+06
    891      1      9     91      0.3275E-02      0.6804E+06
    892      1      9     92       0.000          0.6804E+06
    893      1      9     93       0.000          0.6804E+06
    894      1      9     94     -0.7698E-01      0.6804E+06
    895      1      9     95     -0.1038          0.6804E+06
    896      1      9     96     -0.1242          0.6804E+06
    897      1      9     97     -0.1357          0.6804E+06
    898      1      9     98     -0.1550          0.6804E+06
    899      1      9     99     -0.2520          0.6804E+06
    900      1      9    100     -0.2207          0.6804E+06
    901      1     10      1      0.4910          0.6804E+06
    902      1     10      2      0.4909          0.6804E+06
    903      1     10      3      0.4909          0.6804E+06
    904      1     10      4      0.4908          0.6804E+06
    905      1     10      5      0.4905          0.6804E+06
    906      1     10      6      0.4898          0.6804E+06
    907      1     10      7      0.4881          0.6804E+06
    908      1     10      8      0.4815          0.6804E+06
    909      1     10      9      0.4647          0.6804E+06
    910      1     10     10      0.4426          0.6804E+06
    911      1     10     11      0.4242          0.6804E+06
    912      1     10     12      0.4065          0.6804E+06
    913      1     10     13      0.3934          0.6804E+06
    914      1     10     14      0.3794          0.6804E+06
    915      1     10     15      0.3629          0.6804E+06
    916      1     10     16      0.3505          0.6804E+06
    917      1     10     17      0.3411          0.6804E+06
    918      1     10     18      0.3353          0.6804E+06
    919      1     10     19      0.3326          0.6804E+06
    920      1     10     20      0.3275          0.6804E+06
    921      1     10     21      0.3154          0.6804E+06
    922      1     10     22      0.3006          0.6804E+06
    923      1     10     23      0.2842          0.6804E+06
    924      1     10     24      0.2709          0.6804E+06
    925      1     10     25      0.2572          0.6804E+06
    926      1     10     26      0.2427          0.6804E+06
    927      1     10     27      0.2289          0.6804E+06
    928      1     10     28      0.2155          0.6804E+06
    929      1     10     29      0.2067          0.6804E+06
    930      1     10     30      0.2028          0.6804E+06
    931      1     10     31      0.2007          0.6804E+06
    932      1     10     32      0.1990          0.6804E+06
    933      1     10     33      0.1952          0.6804E+06
    934      1     10     34      0.1867          0.6804E+06
    935      1     10     35      0.1746          0.6804E+06
    936      1     10     36      0.1550          0.6804E+06
    937      1     10     37      0.1413          0.6804E+06
    938      1     10     38      0.1471          0.6804E+06
    939      1     10     39      0.1633          0.6804E+06
    940      1     10     40      0.1758          0.6804E+06
    941      1     10     41      0.1863          0.6804E+06
    942      1     10     42      0.1935          0.6804E+06
    943      1     10     43      0.1976          0.6804E+06
    944      1     10     44      0.2002          0.6804E+06
    945      1     10     45      0.2017          0.6804E+06
    946      1     10     46      0.2024          0.6804E+06
    947      1     10     47      0.2028          0.6804E+06
    948      1     10     48      0.2048          0.6804E+06
    949      1     10     49      0.2073          0.6804E+06
    950      1     10     50      0.2087          0.6804E+06
    951      1     10     51      0.2090          0.6804E+06
    952      1     10     52      0.2079          0.6804E+06
    953      1     10     53      0.2058          0.6804E+06
    954      1     10     54      0.2026          0.6804E+06
    955      1     10     55      0.1986          0.6804E+06
    956      1     10     56      0.1948          0.6804E+06
    957      1     10     57      0.1904          0.6804E+06
    958      1     10     58      0.1862          0.6804E+06
    959      1     10     59      0.1821          0.6804E+06
    960      1     10     60      0.1775          0.6804E+06
    961      1     10     61      0.1740          0.6804E+06
    962      1     10     62      0.1699          0.6804E+06
    963      1     10     63      0.1649          0.6804E+06
    964      1     10     64      0.1595          0.6804E+06
    965      1     10     65      0.1526          0.6804E+06
    966      1     10     66      0.1451          0.6804E+06
    967      1     10     67      0.1389          0.6804E+06
    968      1     10     68      0.1335          0.6804E+06
    969      1     10     69      0.1289          0.6804E+06
    970      1     10     70      0.1239          0.6804E+06
    971      1     10     71      0.1190          0.6804E+06
    972      1     10     72      0.1141          0.6804E+06
    973      1     10     73      0.1077          0.6804E+06
    974      1     10     74      0.1018          0.6804E+06
    975      1     10     75      0.9769E-01      0.6804E+06
    976      1     10     76      0.9470E-01      0.6804E+06
    977      1     10     77      0.9187E-01      0.6804E+06
    978      1     10     78      0.8740E-01      0.6804E+06
    979      1     10     79      0.8168E-01      0.6804E+06
    980      1     10     80      0.7663E-01      0.6804E+06
    981      1     10     81      0.7193E-01      0.6804E+06
    982      1     10     82      0.6758E-01      0.6804E+06
    983      1     10     83      0.6340E-01      0.6804E+06
    984      1     10     84      0.5770E-01      0.6804E+06
    985      1     10     85      0.5233E-01      0.6804E+06
    986      1     10     86      0.4414E-01      0.6804E+06
    987      1     10     87      0.3412E-01      0.6804E+06
    988      1     10     88      0.2380E-01      0.6804E+06
    989      1     10     89      0.1137E-01      0.6804E+06
    990      1     10     90       0.000          0.6804E+06
    991      1     10     91       0.000          0.6804E+06
    992      1     10     92       0.000          0.6804E+06
    993      1     10     93     -0.8005E-01      0.6804E+06
    994      1     10     94     -0.1037          0.6804E+06
    995      1     10     95     -0.1303          0.6804E+06
    996      1     10     96     -0.1401          0.6804E+06
    997      1     10     97     -0.1600          0.6804E+06
    998      1     10     98     -0.2419          0.6804E+06
    999      1     10     99     -0.2095          0.6804E+06
   1000      1     10    100     -0.1550          0.6804E+06
   1001      1     11      1      0.4964          0.6804E+06
   1002      1     11      2      0.4960          0.6804E+06
   1003      1     11      3      0.4955          0.6804E+06
   1004      1     11      4      0.4946          0.6804E+06
   1005      1     11      5      0.4931          0.6804E+06
   1006      1     11      6      0.4907          0.6804E+06
   1007      1     11      7      0.4860          0.6804E+06
   1008      1     11      8      0.4755          0.6804E+06
   1009      1     11      9      0.4569          0.6804E+06
   1010      1     11     10      0.4316          0.6804E+06
   1011      1     11     11      0.4092          0.6804E+06
   1012      1     11     12      0.3863          0.6804E+06
   1013      1     11     13      0.3678          0.6804E+06
   1014      1     11     14      0.3528          0.6804E+06
   1015      1     11     15      0.3383          0.6804E+06
   1016      1     11     16      0.3288          0.6804E+06
   1017      1     11     17      0.3209          0.6804E+06
   1018      1     11     18      0.3155          0.6804E+06
   1019      1     11     19      0.3116          0.6804E+06
   1020      1     11     20      0.3054          0.6804E+06
   1021      1     11     21      0.2945          0.6804E+06
   1022      1     11     22      0.2823          0.6804E+06
   1023      1     11     23      0.2679          0.6804E+06
   1024      1     11     24      0.2554          0.6804E+06
   1025      1     11     25      0.2421          0.6804E+06
   1026      1     11     26      0.2289          0.6804E+06
   1027      1     11     27      0.2175          0.6804E+06
   1028      1     11     28      0.2064          0.6804E+06
   1029      1     11     29      0.1986          0.6804E+06
   1030      1     11     30      0.1943          0.6804E+06
   1031      1     11     31      0.1917          0.6804E+06
   1032      1     11     32      0.1902          0.6804E+06
   1033      1     11     33      0.1880          0.6804E+06
   1034      1     11     34      0.1833          0.6804E+06
   1035      1     11     35      0.1763          0.6804E+06
   1036      1     11     36      0.1644          0.6804E+06
   1037      1     11     37      0.1563          0.6804E+06
   1038      1     11     38      0.1601          0.6804E+06
   1039      1     11     39      0.1693          0.6804E+06
   1040      1     11     40      0.1763          0.6804E+06
   1041      1     11     41      0.1815          0.6804E+06
   1042      1     11     42      0.1845          0.6804E+06
   1043      1     11     43      0.1858          0.6804E+06
   1044      1     11     44      0.1860          0.6804E+06
   1045      1     11     45      0.1852          0.6804E+06
   1046      1     11     46      0.1835          0.6804E+06
   1047      1     11     47      0.1819          0.6804E+06
   1048      1     11     48      0.1839          0.6804E+06
   1049      1     11     49      0.1876          0.6804E+06
   1050      1     11     50      0.1900          0.6804E+06
   1051      1     11     51      0.1909          0.6804E+06
   1052      1     11     52      0.1907          0.6804E+06
   1053      1     11     53      0.1891          0.6804E+06
   1054      1     11     54      0.1861          0.6804E+06
   1055      1     11     55      0.1827          0.6804E+06
   1056      1     11     56      0.1796          0.6804E+06
   1057      1     11     57      0.1755          0.6804E+06
   1058      1     11     58      0.1713          0.6804E+06
   1059      1     11     59      0.1677          0.6804E+06
   1060      1     11     60      0.1634          0.6804E+06
   1061      1     11     61      0.1600          0.6804E+06
   1062      1     11     62      0.1560          0.6804E+06
   1063      1     11     63      0.1514          0.6804E+06
   1064      1     11     64      0.1463          0.6804E+06
   1065      1     11     65      0.1389          0.6804E+06
   1066      1     11     66      0.1304          0.6804E+06
   1067      1     11     67      0.1237          0.6804E+06
   1068      1     11     68      0.1186          0.6804E+06
   1069      1     11     69      0.1149          0.6804E+06
   1070      1     11     70      0.1109          0.6804E+06
   1071      1     11     71      0.1065          0.6804E+06
   1072      1     11     72      0.1019          0.6804E+06
   1073      1     11     73      0.9568E-01      0.6804E+06
   1074      1     11     74      0.9004E-01      0.6804E+06
   1075      1     11     75      0.8625E-01      0.6804E+06
   1076      1     11     76      0.8396E-01      0.6804E+06
   1077      1     11     77      0.8147E-01      0.6804E+06
   1078      1     11     78      0.7762E-01      0.6804E+06
   1079      1     11     79      0.7270E-01      0.6804E+06
   1080      1     11     80      0.6809E-01      0.6804E+06
   1081      1     11     81      0.6301E-01      0.6804E+06
   1082      1     11     82      0.5786E-01      0.6804E+06
   1083      1     11     83      0.5327E-01      0.6804E+06
   1084      1     11     84      0.4735E-01      0.6804E+06
   1085      1     11     85      0.3999E-01      0.6804E+06
   1086      1     11     86      0.2950E-01      0.6804E+06
   1087      1     11     87      0.1704E-01      0.6804E+06
   1088      1     11     88      0.5363E-02      0.6804E+06
   1089      1     11     89       0.000          0.6804E+06
   1090      1     11     90       0.000          0.6804E+06
   1091      1     11     91     -0.6310E-01      0.6804E+06
   1092      1     11     92     -0.8652E-01      0.6804E+06
   1093      1     11     93     -0.1029          0.6804E+06
   1094      1     11     94     -0.1237          0.6804E+06
   1095      1     11     95     -0.1383          0.6804E+06
   1096      1     11     96     -0.1603          0.6804E+06
   1097      1     11     97     -0.2289          0.6804E+06
   1098      1     11     98     -0.2050          0.6804E+06
   1099      1     11     99     -0.1569          0.6804E+06
   1100      1     11    100     -0.1391          0.6804E+06
   1101      1     12      1      0.5005          0.6804E+06
   1102      1     12      2      0.4995          0.6804E+06
   1103      1     12      3      0.4984          0.6804E+06
   1104      1     12      4      0.4965          0.6804E+06
   1105      1     12      5      0.4937          0.6804E+06
   1106      1     12      6      0.4895          0.6804E+06
   1107      1     12      7      0.4814          0.6804E+06
   1108      1     12      8      0.4671          0.6804E+06
   1109      1     12      9      0.4475          0.6804E+06
   1110      1     12     10      0.4195          0.6804E+06
   1111      1     12     11      0.3936          0.6804E+06
   1112      1     12     12      0.3655          0.6804E+06
   1113      1     12     13      0.3402          0.6804E+06
   1114      1     12     14      0.3244          0.6804E+06
   1115      1     12     15      0.3130          0.6804E+06
   1116      1     12     16      0.3076          0.6804E+06
   1117      1     12     17      0.3017          0.6804E+06
   1118      1     12     18      0.2963          0.6804E+06
   1119      1     12     19      0.2915          0.6804E+06
   1120      1     12     20      0.2843          0.6804E+06
   1121      1     12     21      0.2741          0.6804E+06
   1122      1     12     22      0.2635          0.6804E+06
   1123      1     12     23      0.2507          0.6804E+06
   1124      1     12     24      0.2391          0.6804E+06
   1125      1     12     25      0.2265          0.6804E+06
   1126      1     12     26      0.2146          0.6804E+06
   1127      1     12     27      0.2049          0.6804E+06
   1128      1     12     28      0.1957          0.6804E+06
   1129      1     12     29      0.1895          0.6804E+06
   1130      1     12     30      0.1857          0.6804E+06
   1131      1     12     31      0.1838          0.6804E+06
   1132      1     12     32      0.1838          0.6804E+06
   1133      1     12     33      0.1843          0.6804E+06
   1134      1     12     34      0.1846          0.6804E+06
   1135      1     12     35      0.1850          0.6804E+06
   1136      1     12     36      0.1852          0.6804E+06
   1137      1     12     37      0.1857          0.6804E+06
   1138      1     12     38      0.1843          0.6804E+06
   1139      1     12     39      0.1823          0.6804E+06
   1140      1     12     40      0.1810          0.6804E+06
   1141      1     12     41      0.1797          0.6804E+06
   1142      1     12     42      0.1785          0.6804E+06
   1143      1     12     43      0.1776          0.6804E+06
   1144      1     12     44      0.1758          0.6804E+06
   1145      1     12     45      0.1730          0.6804E+06
   1146      1     12     46      0.1701          0.6804E+06
   1147      1     12     47      0.1677          0.6804E+06
   1148      1     12     48      0.1694          0.6804E+06
   1149      1     12     49      0.1730          0.6804E+06
   1150      1     12     50      0.1752          0.6804E+06
   1151      1     12     51      0.1764          0.6804E+06
   1152      1     12     52      0.1764          0.6804E+06
   1153      1     12     53      0.1743          0.6804E+06
   1154      1     12     54      0.1706          0.6804E+06
   1155      1     12     55      0.1693          0.6804E+06
   1156      1     12     56      0.1667          0.6804E+06
   1157      1     12     57      0.1628          0.6804E+06
   1158      1     12     58      0.1588          0.6804E+06
   1159      1     12     59      0.1551          0.6804E+06
   1160      1     12     60      0.1509          0.6804E+06
   1161      1     12     61      0.1473          0.6804E+06
   1162      1     12     62      0.1432          0.6804E+06
   1163      1     12     63      0.1389          0.6804E+06
   1164      1     12     64      0.1344          0.6804E+06
   1165      1     12     65      0.1265          0.6804E+06
   1166      1     12     66      0.1167          0.6804E+06
   1167      1     12     67      0.1092          0.6804E+06
   1168      1     12     68      0.1054          0.6804E+06
   1169      1     12     69      0.1031          0.6804E+06
   1170      1     12     70      0.1002          0.6804E+06
   1171      1     12     71      0.9652E-01      0.6804E+06
   1172      1     12     72      0.9234E-01      0.6804E+06
   1173      1     12     73      0.8685E-01      0.6804E+06
   1174      1     12     74      0.8189E-01      0.6804E+06
   1175      1     12     75      0.7844E-01      0.6804E+06
   1176      1     12     76      0.7588E-01      0.6804E+06
   1177      1     12     77      0.7315E-01      0.6804E+06
   1178      1     12     78      0.6915E-01      0.6804E+06
   1179      1     12     79      0.6400E-01      0.6804E+06
   1180      1     12     80      0.5893E-01      0.6804E+06
   1181      1     12     81      0.5325E-01      0.6804E+06
   1182      1     12     82      0.4783E-01      0.6804E+06
   1183      1     12     83      0.4289E-01      0.6804E+06
   1184      1     12     84      0.3546E-01      0.6804E+06
   1185      1     12     85      0.2601E-01      0.6804E+06
   1186      1     12     86      0.1418E-01      0.6804E+06
   1187      1     12     87      0.9250E-03      0.6804E+06
   1188      1     12     88       0.000          0.6804E+06
   1189      1     12     89       0.000          0.6804E+06
   1190      1     12     90     -0.7046E-01      0.6804E+06
   1191      1     12     91     -0.8687E-01      0.6804E+06
   1192      1     12     92     -0.1042          0.6804E+06
   1193      1     12     93     -0.1183          0.6804E+06
   1194      1     12     94     -0.1342          0.6804E+06
   1195      1     12     95     -0.1562          0.6804E+06
   1196      1     12     96     -0.2266          0.6804E+06
   1197      1     12     97     -0.1988          0.6804E+06
   1198      1     12     98     -0.1559          0.6804E+06
   1199      1     12     99     -0.1234          0.6804E+06
   1200      1     12    100     -0.1214          0.6804E+06
   1201      1     13      1      0.5044          0.6804E+06
   1202      1     13      2      0.5024          0.6804E+06
   1203      1     13      3      0.5004          0.6804E+06
   1204      1     13      4      0.4974          0.6804E+06
   1205      1     13      5      0.4931          0.6804E+06
   1206      1     13      6      0.4871          0.6804E+06
   1207      1     13      7      0.4765          0.6804E+06
   1208      1     13      8      0.4596          0.6804E+06
   1209      1     13      9      0.4382          0.6804E+06
   1210      1     13     10      0.4073          0.6804E+06
   1211      1     13     11      0.3781          0.6804E+06
   1212      1     13     12      0.3455          0.6804E+06
   1213      1     13     13      0.3149          0.6804E+06
   1214      1     13     14      0.2984          0.6804E+06
   1215      1     13     15      0.2888          0.6804E+06
   1216      1     13     16      0.2856          0.6804E+06
   1217      1     13     17      0.2810          0.6804E+06
   1218      1     13     18      0.2750          0.6804E+06
   1219      1     13     19      0.2690          0.6804E+06
   1220      1     13     20      0.2607          0.6804E+06
   1221      1     13     21      0.2508          0.6804E+06
   1222      1     13     22      0.2413          0.6804E+06
   1223      1     13     23      0.2297          0.6804E+06
   1224      1     13     24      0.2189          0.6804E+06
   1225      1     13     25      0.2072          0.6804E+06
   1226      1     13     26      0.1967          0.6804E+06
   1227      1     13     27      0.1884          0.6804E+06
   1228      1     13     28      0.1810          0.6804E+06
   1229      1     13     29      0.1766          0.6804E+06
   1230      1     13     30      0.1743          0.6804E+06
   1231      1     13     31      0.1738          0.6804E+06
   1232      1     13     32      0.1755          0.6804E+06
   1233      1     13     33      0.1799          0.6804E+06
   1234      1     13     34      0.1864          0.6804E+06
   1235      1     13     35      0.1954          0.6804E+06
   1236      1     13     36      0.2086          0.6804E+06
   1237      1     13     37      0.2184          0.6804E+06
   1238      1     13     38      0.2114          0.6804E+06
   1239      1     13     39      0.1974          0.6804E+06
   1240      1     13     40      0.1865          0.6804E+06
   1241      1     13     41      0.1780          0.6804E+06
   1242      1     13     42      0.1723          0.6804E+06
   1243      1     13     43      0.1693          0.6804E+06
   1244      1     13     44      0.1655          0.6804E+06
   1245      1     13     45      0.1614          0.6804E+06
   1246      1     13     46      0.1585          0.6804E+06
   1247      1     13     47      0.1564          0.6804E+06
   1248      1     13     48      0.1572          0.6804E+06
   1249      1     13     49      0.1594          0.6804E+06
   1250      1     13     50      0.1607          0.6804E+06
   1251      1     13     51      0.1615          0.6804E+06
   1252      1     13     52      0.1604          0.6804E+06
   1253      1     13     53      0.1583          0.6804E+06
   1254      1     13     54      0.1563          0.6804E+06
   1255      1     13     55      0.1549          0.6804E+06
   1256      1     13     56      0.1521          0.6804E+06
   1257      1     13     57      0.1480          0.6804E+06
   1258      1     13     58      0.1438          0.6804E+06
   1259      1     13     59      0.1399          0.6804E+06
   1260      1     13     60      0.1354          0.6804E+06
   1261      1     13     61      0.1316          0.6804E+06
   1262      1     13     62      0.1272          0.6804E+06
   1263      1     13     63      0.1240          0.6804E+06
   1264      1     13     64      0.1198          0.6804E+06
   1265      1     13     65      0.1122          0.6804E+06
   1266      1     13     66      0.1019          0.6804E+06
   1267      1     13     67      0.9317E-01      0.6804E+06
   1268      1     13     68      0.9147E-01      0.6804E+06
   1269      1     13     69      0.9093E-01      0.6804E+06
   1270      1     13     70      0.8931E-01      0.6804E+06
   1271      1     13     71      0.8636E-01      0.6804E+06
   1272      1     13     72      0.8272E-01      0.6804E+06
   1273      1     13     73      0.7806E-01      0.6804E+06
   1274      1     13     74      0.7389E-01      0.6804E+06
   1275      1     13     75      0.7073E-01      0.6804E+06
   1276      1     13     76      0.6702E-01      0.6804E+06
   1277      1     13     77      0.6354E-01      0.6804E+06
   1278      1     13     78      0.5881E-01      0.6804E+06
   1279      1     13     79      0.5279E-01      0.6804E+06
   1280      1     13     80      0.4697E-01      0.6804E+06
   1281      1     13     81      0.3993E-01      0.6804E+06
   1282      1     13     82      0.3310E-01      0.6804E+06
   1283      1     13     83      0.2724E-01      0.6804E+06
   1284      1     13     84      0.1894E-01      0.6804E+06
   1285      1     13     85      0.7591E-02      0.6804E+06
   1286      1     13     86       0.000          0.6804E+06
   1287      1     13     87       0.000          0.6804E+06
   1288      1     13     88     -0.5507E-01      0.6804E+06
   1289      1     13     89     -0.7767E-01      0.6804E+06
   1290      1     13     90     -0.9604E-01      0.6804E+06
   1291      1     13     91     -0.1095          0.6804E+06
   1292      1     13     92     -0.1211          0.6804E+06
   1293      1     13     93     -0.1322          0.6804E+06
   1294      1     13     94     -0.1323          0.6804E+06
   1295      1     13     95     -0.1705          0.6804E+06
   1296      1     13     96     -0.2359          0.6804E+06
   1297      1     13     97     -0.1808          0.6804E+06
   1298      1     13     98     -0.1415          0.6804E+06
   1299      1     13     99     -0.1149          0.6804E+06
   1300      1     13    100     -0.1151          0.6804E+06
   1301      1     14      1      0.5075          0.6804E+06
   1302      1     14      2      0.5045          0.6804E+06
   1303      1     14      3      0.5015          0.6804E+06
   1304      1     14      4      0.4975          0.6804E+06
   1305      1     14      5      0.4922          0.6804E+06
   1306      1     14      6      0.4855          0.6804E+06
   1307      1     14      7      0.4742          0.6804E+06
   1308      1     14      8      0.4567          0.6804E+06
   1309      1     14      9      0.4344          0.6804E+06
   1310      1     14     10      0.4021          0.6804E+06
   1311      1     14     11      0.3712          0.6804E+06
   1312      1     14     12      0.3364          0.6804E+06
   1313      1     14     13      0.3056          0.6804E+06
   1314      1     14     14      0.2873          0.6804E+06
   1315      1     14     15      0.2750          0.6804E+06
   1316      1     14     16      0.2695          0.6804E+06
   1317      1     14     17      0.2634          0.6804E+06
   1318      1     14     18      0.2561          0.6804E+06
   1319      1     14     19      0.2487          0.6804E+06
   1320      1     14     20      0.2391          0.6804E+06
   1321      1     14     21      0.2288          0.6804E+06
   1322      1     14     22      0.2196          0.6804E+06
   1323      1     14     23      0.2086          0.6804E+06
   1324      1     14     24      0.1984          0.6804E+06
   1325      1     14     25      0.1874          0.6804E+06
   1326      1     14     26      0.1778          0.6804E+06
   1327      1     14     27      0.1704          0.6804E+06
   1328      1     14     28      0.1641          0.6804E+06
   1329      1     14     29      0.1614          0.6804E+06
   1330      1     14     30      0.1607          0.6804E+06
   1331      1     14     31      0.1615          0.6804E+06
   1332      1     14     32      0.1645          0.6804E+06
   1333      1     14     33      0.1713          0.6804E+06
   1334      1     14     34      0.1816          0.6804E+06
   1335      1     14     35      0.1949          0.6804E+06
   1336      1     14     36      0.2137          0.6804E+06
   1337      1     14     37      0.2274          0.6804E+06
   1338      1     14     38      0.2180          0.6804E+06
   1339      1     14     39      0.1994          0.6804E+06
   1340      1     14     40      0.1844          0.6804E+06
   1341      1     14     41      0.1727          0.6804E+06
   1342      1     14     42      0.1647          0.6804E+06
   1343      1     14     43      0.1597          0.6804E+06
   1344      1     14     44      0.1550          0.6804E+06
   1345      1     14     45      0.1516          0.6804E+06
   1346      1     14     46      0.1502          0.6804E+06
   1347      1     14     47      0.1491          0.6804E+06
   1348      1     14     48      0.1487          0.6804E+06
   1349      1     14     49      0.1486          0.6804E+06
   1350      1     14     50      0.1485          0.6804E+06
   1351      1     14     51      0.1477          0.6804E+06
   1352      1     14     52      0.1458          0.6804E+06
   1353      1     14     53      0.1444          0.6804E+06
   1354      1     14     54      0.1436          0.6804E+06
   1355      1     14     55      0.1409          0.6804E+06
   1356      1     14     56      0.1375          0.6804E+06
   1357      1     14     57      0.1331          0.6804E+06
   1358      1     14     58      0.1289          0.6804E+06
   1359      1     14     59      0.1246          0.6804E+06
   1360      1     14     60      0.1194          0.6804E+06
   1361      1     14     61      0.1155          0.6804E+06
   1362      1     14     62      0.1122          0.6804E+06
   1363      1     14     63      0.1099          0.6804E+06
   1364      1     14     64      0.1065          0.6804E+06
   1365      1     14     65      0.1005          0.6804E+06
   1366      1     14     66      0.9264E-01      0.6804E+06
   1367      1     14     67      0.8619E-01      0.6804E+06
   1368      1     14     68      0.8330E-01      0.6804E+06
   1369      1     14     69      0.8193E-01      0.6804E+06
   1370      1     14     70      0.8018E-01      0.6804E+06
   1371      1     14     71      0.7730E-01      0.6804E+06
   1372      1     14     72      0.7382E-01      0.6804E+06
   1373      1     14     73      0.6933E-01      0.6804E+06
   1374      1     14     74      0.6537E-01      0.6804E+06
   1375      1     14     75      0.6226E-01      0.6804E+06
   1376      1     14     76      0.5722E-01      0.6804E+06
   1377      1     14     77      0.5278E-01      0.6804E+06
   1378      1     14     78      0.4708E-01      0.6804E+06
   1379      1     14     79      0.3986E-01      0.6804E+06
   1380      1     14     80      0.3278E-01      0.6804E+06
   1381      1     14     81      0.2332E-01      0.6804E+06
   1382      1     14     82      0.1378E-01      0.6804E+06
   1383      1     14     83      0.6767E-02      0.6804E+06
   1384      1     14     84       0.000          0.6804E+06
   1385      1     14     85       0.000          0.6804E+06
   1386      1     14     86       0.000          0.6804E+06
   1387      1     14     87     -0.6990E-01      0.6804E+06
   1388      1     14     88     -0.8457E-01      0.6804E+06
   1389      1     14     89     -0.1005          0.6804E+06
   1390      1     14     90     -0.1123          0.6804E+06
   1391      1     14     91     -0.1239          0.6804E+06
   1392      1     14     92     -0.1294          0.6804E+06
   1393      1     14     93     -0.1235          0.6804E+06
   1394      1     14     94     -0.1113          0.6804E+06
   1395      1     14     95     -0.1083          0.6804E+06
   1396      1     14     96     -0.1203          0.6804E+06
   1397      1     14     97     -0.1151          0.6804E+06
   1398      1     14     98     -0.9548E-01      0.6804E+06
   1399      1     14     99     -0.9044E-01      0.6804E+06
   1400      1     14    100     -0.9852E-01      0.6804E+06
   1401      1     15      1      0.5097          0.6804E+06
   1402      1     15      2      0.5056          0.6804E+06
   1403      1     15      3      0.5017          0.6804E+06
   1404      1     15      4      0.4968          0.6804E+06
   1405      1     15      5      0.4910          0.6804E+06
   1406      1     15      6      0.4845          0.6804E+06
   1407      1     15      7      0.4742          0.6804E+06
   1408      1     15      8      0.4581          0.6804E+06
   1409      1     15      9      0.4357          0.6804E+06
   1410      1     15     10      0.4026          0.6804E+06
   1411      1     15     11      0.3704          0.6804E+06
   1412      1     15     12      0.3344          0.6804E+06
   1413      1     15     13      0.3034          0.6804E+06
   1414      1     15     14      0.2839          0.6804E+06
   1415      1     15     15      0.2688          0.6804E+06
   1416      1     15     16      0.2604          0.6804E+06
   1417      1     15     17      0.2518          0.6804E+06
   1418      1     15     18      0.2425          0.6804E+06
   1419      1     15     19      0.2338          0.6804E+06
   1420      1     15     20      0.2228          0.6804E+06
   1421      1     15     21      0.2115          0.6804E+06
   1422      1     15     22      0.2016          0.6804E+06
   1423      1     15     23      0.1904          0.6804E+06
   1424      1     15     24      0.1804          0.6804E+06
   1425      1     15     25      0.1697          0.6804E+06
   1426      1     15     26      0.1606          0.6804E+06
   1427      1     15     27      0.1537          0.6804E+06
   1428      1     15     28      0.1482          0.6804E+06
   1429      1     15     29      0.1468          0.6804E+06
   1430      1     15     30      0.1467          0.6804E+06
   1431      1     15     31      0.1483          0.6804E+06
   1432      1     15     32      0.1522          0.6804E+06
   1433      1     15     33      0.1601          0.6804E+06
   1434      1     15     34      0.1709          0.6804E+06
   1435      1     15     35      0.1831          0.6804E+06
   1436      1     15     36      0.1983          0.6804E+06
   1437      1     15     37      0.2078          0.6804E+06
   1438      1     15     38      0.2007          0.6804E+06
   1439      1     15     39      0.1863          0.6804E+06
   1440      1     15     40      0.1735          0.6804E+06
   1441      1     15     41      0.1624          0.6804E+06
   1442      1     15     42      0.1549          0.6804E+06
   1443      1     15     43      0.1497          0.6804E+06
   1444      1     15     44      0.1454          0.6804E+06
   1445      1     15     45      0.1435          0.6804E+06
   1446      1     15     46      0.1436          0.6804E+06
   1447      1     15     47      0.1428          0.6804E+06
   1448      1     15     48      0.1416          0.6804E+06
   1449      1     15     49      0.1399          0.6804E+06
   1450      1     15     50      0.1384          0.6804E+06
   1451      1     15     51      0.1357          0.6804E+06
   1452      1     15     52      0.1348          0.6804E+06
   1453      1     15     53      0.1345          0.6804E+06
   1454      1     15     54      0.1321          0.6804E+06
   1455      1     15     55      0.1286          0.6804E+06
   1456      1     15     56      0.1247          0.6804E+06
   1457      1     15     57      0.1202          0.6804E+06
   1458      1     15     58      0.1164          0.6804E+06
   1459      1     15     59      0.1120          0.6804E+06
   1460      1     15     60      0.1064          0.6804E+06
   1461      1     15     61      0.1027          0.6804E+06
   1462      1     15     62      0.1004          0.6804E+06
   1463      1     15     63      0.9913E-01      0.6804E+06
   1464      1     15     64      0.9672E-01      0.6804E+06
   1465      1     15     65      0.9227E-01      0.6804E+06
   1466      1     15     66      0.8654E-01      0.6804E+06
   1467      1     15     67      0.8177E-01      0.6804E+06
   1468      1     15     68      0.7807E-01      0.6804E+06
   1469      1     15     69      0.7570E-01      0.6804E+06
   1470      1     15     70      0.7318E-01      0.6804E+06
   1471      1     15     71      0.6998E-01      0.6804E+06
   1472      1     15     72      0.6634E-01      0.6804E+06
   1473      1     15     73      0.6178E-01      0.6804E+06
   1474      1     15     74      0.5740E-01      0.6804E+06
   1475      1     15     75      0.5345E-01      0.6804E+06
   1476      1     15     76      0.4765E-01      0.6804E+06
   1477      1     15     77      0.4245E-01      0.6804E+06
   1478      1     15     78      0.3577E-01      0.6804E+06
   1479      1     15     79      0.2695E-01      0.6804E+06
   1480      1     15     80      0.1672E-01      0.6804E+06
   1481      1     15     81      0.4409E-02      0.6804E+06
   1482      1     15     82       0.000          0.6804E+06
   1483      1     15     83       0.000          0.6804E+06
   1484      1     15     84       0.000          0.6804E+06
   1485      1     15     85     -0.5727E-01      0.6804E+06
   1486      1     15     86     -0.7659E-01      0.6804E+06
   1487      1     15     87     -0.9258E-01      0.6804E+06
   1488      1     15     88     -0.1039          0.6804E+06
   1489      1     15     89     -0.1146          0.6804E+06
   1490      1     15     90     -0.1237          0.6804E+06
   1491      1     15     91     -0.1298          0.6804E+06
   1492      1     15     92     -0.1364          0.6804E+06
   1493      1     15     93     -0.9256E-01      0.6804E+06
   1494      1     15     94     -0.6529E-01      0.6804E+06
   1495      1     15     95     -0.4532E-01      0.6804E+06
   1496      1     15     96     -0.3364E-01      0.6804E+06
   1497      1     15     97     -0.2528E-01      0.6804E+06
   1498      1     15     98     -0.1991E-01      0.6804E+06
   1499      1     15     99     -0.2013E-01      0.6804E+06
   1500      1     15    100     -0.2466E-01      0.6804E+06
   1501      1     16      1      0.5117          0.6804E+06
   1502      1     16      2      0.5062          0.6804E+06
   1503      1     16      3      0.5011          0.6804E+06
   1504      1     16      4      0.4951          0.6804E+06
   1505      1     16      5      0.4888          0.6804E+06
   1506      1     16      6      0.4828          0.6804E+06
   1507      1     16      7      0.4744          0.6804E+06
   1508      1     16      8      0.4616          0.6804E+06
   1509      1     16      9      0.4391          0.6804E+06
   1510      1     16     10      0.4047          0.6804E+06
   1511      1     16     11      0.3710          0.6804E+06
   1512      1     16     12      0.3335          0.6804E+06
   1513      1     16     13      0.3011          0.6804E+06
   1514      1     16     14      0.2806          0.6804E+06
   1515      1     16     15      0.2641          0.6804E+06
   1516      1     16     16      0.2535          0.6804E+06
   1517      1     16     17      0.2422          0.6804E+06
   1518      1     16     18      0.2306          0.6804E+06
   1519      1     16     19      0.2201          0.6804E+06
   1520      1     16     20      0.2073          0.6804E+06
   1521      1     16     21      0.1940          0.6804E+06
   1522      1     16     22      0.1829          0.6804E+06
   1523      1     16     23      0.1706          0.6804E+06
   1524      1     16     24      0.1597          0.6804E+06
   1525      1     16     25      0.1484          0.6804E+06
   1526      1     16     26      0.1396          0.6804E+06
   1527      1     16     27      0.1334          0.6804E+06
   1528      1     16     28      0.1290          0.6804E+06
   1529      1     16     29      0.1286          0.6804E+06
   1530      1     16     30      0.1287          0.6804E+06
   1531      1     16     31      0.1310          0.6804E+06
   1532      1     16     32      0.1358          0.6804E+06
   1533      1     16     33      0.1437          0.6804E+06
   1534      1     16     34      0.1528          0.6804E+06
   1535      1     16     35      0.1609          0.6804E+06
   1536      1     16     36      0.1686          0.6804E+06
   1537      1     16     37      0.1713          0.6804E+06
   1538      1     16     38      0.1682          0.6804E+06
   1539      1     16     39      0.1613          0.6804E+06
   1540      1     16     40      0.1537          0.6804E+06
   1541      1     16     41      0.1457          0.6804E+06
   1542      1     16     42      0.1414          0.6804E+06
   1543      1     16     43      0.1373          0.6804E+06
   1544      1     16     44      0.1339          0.6804E+06
   1545      1     16     45      0.1332          0.6804E+06
   1546      1     16     46      0.1338          0.6804E+06
   1547      1     16     47      0.1335          0.6804E+06
   1548      1     16     48      0.1321          0.6804E+06
   1549      1     16     49      0.1293          0.6804E+06
   1550      1     16     50      0.1260          0.6804E+06
   1551      1     16     51      0.1247          0.6804E+06
   1552      1     16     52      0.1238          0.6804E+06
   1553      1     16     53      0.1221          0.6804E+06
   1554      1     16     54      0.1190          0.6804E+06
   1555      1     16     55      0.1149          0.6804E+06
   1556      1     16     56      0.1106          0.6804E+06
   1557      1     16     57      0.1062          0.6804E+06
   1558      1     16     58      0.1032          0.6804E+06
   1559      1     16     59      0.9961E-01      0.6804E+06
   1560      1     16     60      0.9462E-01      0.6804E+06
   1561      1     16     61      0.9123E-01      0.6804E+06
   1562      1     16     62      0.8954E-01      0.6804E+06
   1563      1     16     63      0.8927E-01      0.6804E+06
   1564      1     16     64      0.8770E-01      0.6804E+06
   1565      1     16     65      0.8443E-01      0.6804E+06
   1566      1     16     66      0.8000E-01      0.6804E+06
   1567      1     16     67      0.7607E-01      0.6804E+06
   1568      1     16     68      0.7199E-01      0.6804E+06
   1569      1     16     69      0.6876E-01      0.6804E+06
   1570      1     16     70      0.6524E-01      0.6804E+06
   1571      1     16     71      0.6114E-01      0.6804E+06
   1572      1     16     72      0.5699E-01      0.6804E+06
   1573      1     16     73      0.5135E-01      0.6804E+06
   1574      1     16     74      0.4537E-01      0.6804E+06
   1575      1     16     75      0.4001E-01      0.6804E+06
   1576      1     16     76      0.3291E-01      0.6804E+06
   1577      1     16     77      0.2612E-01      0.6804E+06
   1578      1     16     78      0.1827E-01      0.6804E+06
   1579      1     16     79      0.9393E-02      0.6804E+06
   1580      1     16     80       0.000          0.6804E+06
   1581      1     16     81       0.000          0.6804E+06
   1582      1     16     82       0.000          0.6804E+06
   1583      1     16     83     -0.5502E-01      0.6804E+06
   1584      1     16     84     -0.7255E-01      0.6804E+06
   1585      1     16     85     -0.8768E-01      0.6804E+06
   1586      1     16     86     -0.1024          0.6804E+06
   1587      1     16     87     -0.1115          0.6804E+06
   1588      1     16     88     -0.1170          0.6804E+06
   1589      1     16     89     -0.1233          0.6804E+06
   1590      1     16     90     -0.1447          0.6804E+06
   1591      1     16     91     -0.1675          0.6804E+06
   1592      1     16     92     -0.8646E-01      0.6804E+06
   1593      1     16     93     -0.3336E-01      0.6804E+06
   1594      1     16     94     -0.6072E-02      0.6804E+06
   1595      1     16     95      0.8056E-02      0.6804E+06
   1596      1     16     96      0.1391E-01      0.6804E+06
   1597      1     16     97      0.1903E-01      0.6804E+06
   1598      1     16     98      0.2325E-01      0.6804E+06
   1599      1     16     99      0.2518E-01      0.6804E+06
   1600      1     16    100      0.2259E-01      0.6804E+06
   1601      1     17      1      0.5132          0.6804E+06
   1602      1     17      2      0.5061          0.6804E+06
   1603      1     17      3      0.4996          0.6804E+06
   1604      1     17      4      0.4924          0.6804E+06
   1605      1     17      5      0.4856          0.6804E+06
   1606      1     17      6      0.4796          0.6804E+06
   1607      1     17      7      0.4724          0.6804E+06
   1608      1     17      8      0.4619          0.6804E+06
   1609      1     17      9      0.4397          0.6804E+06
   1610      1     17     10      0.4053          0.6804E+06
   1611      1     17     11      0.3715          0.6804E+06
   1612      1     17     12      0.3337          0.6804E+06
   1613      1     17     13      0.3002          0.6804E+06
   1614      1     17     14      0.2792          0.6804E+06
   1615      1     17     15      0.2623          0.6804E+06
   1616      1     17     16      0.2502          0.6804E+06
   1617      1     17     17      0.2367          0.6804E+06
   1618      1     17     18      0.2231          0.6804E+06
   1619      1     17     19      0.2108          0.6804E+06
   1620      1     17     20      0.1962          0.6804E+06
   1621      1     17     21      0.1812          0.6804E+06
   1622      1     17     22      0.1685          0.6804E+06
   1623      1     17     23      0.1543          0.6804E+06
   1624      1     17     24      0.1419          0.6804E+06
   1625      1     17     25      0.1295          0.6804E+06
   1626      1     17     26      0.1200          0.6804E+06
   1627      1     17     27      0.1139          0.6804E+06
   1628      1     17     28      0.1103          0.6804E+06
   1629      1     17     29      0.1107          0.6804E+06
   1630      1     17     30      0.1120          0.6804E+06
   1631      1     17     31      0.1153          0.6804E+06
   1632      1     17     32      0.1203          0.6804E+06
   1633      1     17     33      0.1270          0.6804E+06
   1634      1     17     34      0.1337          0.6804E+06
   1635      1     17     35      0.1382          0.6804E+06
   1636      1     17     36      0.1404          0.6804E+06
   1637      1     17     37      0.1388          0.6804E+06
   1638      1     17     38      0.1377          0.6804E+06
   1639      1     17     39      0.1360          0.6804E+06
   1640      1     17     40      0.1331          0.6804E+06
   1641      1     17     41      0.1291          0.6804E+06
   1642      1     17     42      0.1276          0.6804E+06
   1643      1     17     43      0.1251          0.6804E+06
   1644      1     17     44      0.1228          0.6804E+06
   1645      1     17     45      0.1228          0.6804E+06
   1646      1     17     46      0.1235          0.6804E+06
   1647      1     17     47      0.1234          0.6804E+06
   1648      1     17     48      0.1220          0.6804E+06
   1649      1     17     49      0.1190          0.6804E+06
   1650      1     17     50      0.1160          0.6804E+06
   1651      1     17     51      0.1151          0.6804E+06
   1652      1     17     52      0.1138          0.6804E+06
   1653      1     17     53      0.1116          0.6804E+06
   1654      1     17     54      0.1082          0.6804E+06
   1655      1     17     55      0.1036          0.6804E+06
   1656      1     17     56      0.9933E-01      0.6804E+06
   1657      1     17     57      0.9552E-01      0.6804E+06
   1658      1     17     58      0.9389E-01      0.6804E+06
   1659      1     17     59      0.9159E-01      0.6804E+06
   1660      1     17     60      0.8807E-01      0.6804E+06
   1661      1     17     61      0.8546E-01      0.6804E+06
   1662      1     17     62      0.8386E-01      0.6804E+06
   1663      1     17     63      0.8290E-01      0.6804E+06
   1664      1     17     64      0.8115E-01      0.6804E+06
   1665      1     17     65      0.7799E-01      0.6804E+06
   1666      1     17     66      0.7371E-01      0.6804E+06
   1667      1     17     67      0.6994E-01      0.6804E+06
   1668      1     17     68      0.6543E-01      0.6804E+06
   1669      1     17     69      0.6161E-01      0.6804E+06
   1670      1     17     70      0.5726E-01      0.6804E+06
   1671      1     17     71      0.5201E-01      0.6804E+06
   1672      1     17     72      0.4704E-01      0.6804E+06
   1673      1     17     73      0.3964E-01      0.6804E+06
   1674      1     17     74      0.3137E-01      0.6804E+06
   1675      1     17     75      0.2447E-01      0.6804E+06
   1676      1     17     76      0.1673E-01      0.6804E+06
   1677      1     17     77      0.7928E-02      0.6804E+06
   1678      1     17     78       0.000          0.6804E+06
   1679      1     17     79       0.000          0.6804E+06
   1680      1     17     80       0.000          0.6804E+06
   1681      1     17     81     -0.5108E-01      0.6804E+06
   1682      1     17     82     -0.6802E-01      0.6804E+06
   1683      1     17     83     -0.8274E-01      0.6804E+06
   1684      1     17     84     -0.9991E-01      0.6804E+06
   1685      1     17     85     -0.1090          0.6804E+06
   1686      1     17     86     -0.1146          0.6804E+06
   1687      1     17     87     -0.1207          0.6804E+06
   1688      1     17     88     -0.1303          0.6804E+06
   1689      1     17     89     -0.1228          0.6804E+06
   1690      1     17     90     -0.1321          0.6804E+06
   1691      1     17     91     -0.1019          0.6804E+06
   1692      1     17     92     -0.4046E-01      0.6804E+06
   1693      1     17     93     -0.4846E-02      0.6804E+06
   1694      1     17     94      0.2199E-01      0.6804E+06
   1695      1     17     95      0.3200E-01      0.6804E+06
   1696      1     17     96      0.3853E-01      0.6804E+06
   1697      1     17     97      0.4280E-01      0.6804E+06
   1698      1     17     98      0.4569E-01      0.6804E+06
   1699      1     17     99      0.4825E-01      0.6804E+06
   1700      1     17    100      0.4855E-01      0.6804E+06
   1701      1     18      1      0.5150          0.6804E+06
   1702      1     18      2      0.5057          0.6804E+06
   1703      1     18      3      0.4971          0.6804E+06
   1704      1     18      4      0.4879          0.6804E+06
   1705      1     18      5      0.4798          0.6804E+06
   1706      1     18      6      0.4730          0.6804E+06
   1707      1     18      7      0.4644          0.6804E+06
   1708      1     18      8      0.4516          0.6804E+06
   1709      1     18      9      0.4319          0.6804E+06
   1710      1     18     10      0.4020          0.6804E+06
   1711      1     18     11      0.3718          0.6804E+06
   1712      1     18     12      0.3362          0.6804E+06
   1713      1     18     13      0.3032          0.6804E+06
   1714      1     18     14      0.2818          0.6804E+06
   1715      1     18     15      0.2638          0.6804E+06
   1716      1     18     16      0.2494          0.6804E+06
   1717      1     18     17      0.2333          0.6804E+06
   1718      1     18     18      0.2170          0.6804E+06
   1719      1     18     19      0.2027          0.6804E+06
   1720      1     18     20      0.1862          0.6804E+06
   1721      1     18     21      0.1691          0.6804E+06
   1722      1     18     22      0.1541          0.6804E+06
   1723      1     18     23      0.1371          0.6804E+06
   1724      1     18     24      0.1224          0.6804E+06
   1725      1     18     25      0.1077          0.6804E+06
   1726      1     18     26      0.9683E-01      0.6804E+06
   1727      1     18     27      0.9037E-01      0.6804E+06
   1728      1     18     28      0.8722E-01      0.6804E+06
   1729      1     18     29      0.8822E-01      0.6804E+06
   1730      1     18     30      0.9017E-01      0.6804E+06
   1731      1     18     31      0.9450E-01      0.6804E+06
   1732      1     18     32      0.1004          0.6804E+06
   1733      1     18     33      0.1067          0.6804E+06
   1734      1     18     34      0.1114          0.6804E+06
   1735      1     18     35      0.1126          0.6804E+06
   1736      1     18     36      0.1102          0.6804E+06
   1737      1     18     37      0.1052          0.6804E+06
   1738      1     18     38      0.1062          0.6804E+06
   1739      1     18     39      0.1093          0.6804E+06
   1740      1     18     40      0.1112          0.6804E+06
   1741      1     18     41      0.1112          0.6804E+06
   1742      1     18     42      0.1096          0.6804E+06
   1743      1     18     43      0.1083          0.6804E+06
   1744      1     18     44      0.1079          0.6804E+06
   1745      1     18     45      0.1090          0.6804E+06
   1746      1     18     46      0.1104          0.6804E+06
   1747      1     18     47      0.1104          0.6804E+06
   1748      1     18     48      0.1092          0.6804E+06
   1749      1     18     49      0.1066          0.6804E+06
   1750      1     18     50      0.1047          0.6804E+06
   1751      1     18     51      0.1038          0.6804E+06
   1752      1     18     52      0.1026          0.6804E+06
   1753      1     18     53      0.1007          0.6804E+06
   1754      1     18     54      0.9736E-01      0.6804E+06
   1755      1     18     55      0.9312E-01      0.6804E+06
   1756      1     18     56      0.8958E-01      0.6804E+06
   1757      1     18     57      0.8681E-01      0.6804E+06
   1758      1     18     58      0.8607E-01      0.6804E+06
   1759      1     18     59      0.8470E-01      0.6804E+06
   1760      1     18     60      0.8208E-01      0.6804E+06
   1761      1     18     61      0.7980E-01      0.6804E+06
   1762      1     18     62      0.7801E-01      0.6804E+06
   1763      1     18     63      0.7614E-01      0.6804E+06
   1764      1     18     64      0.7453E-01      0.6804E+06
   1765      1     18     65      0.7158E-01      0.6804E+06
   1766      1     18     66      0.6652E-01      0.6804E+06
   1767      1     18     67      0.6196E-01      0.6804E+06
   1768      1     18     68      0.5659E-01      0.6804E+06
   1769      1     18     69      0.5138E-01      0.6804E+06
   1770      1     18     70      0.4482E-01      0.6804E+06
   1771      1     18     71      0.3818E-01      0.6804E+06
   1772      1     18     72      0.3179E-01      0.6804E+06
   1773      1     18     73      0.2190E-01      0.6804E+06
   1774      1     18     74      0.1020E-01      0.6804E+06
   1775      1     18     75      0.1296E-02      0.6804E+06
   1776      1     18     76       0.000          0.6804E+06
   1777      1     18     77       0.000          0.6804E+06
   1778      1     18     78     -0.3925E-01      0.6804E+06
   1779      1     18     79     -0.5736E-01      0.6804E+06
   1780      1     18     80     -0.6973E-01      0.6804E+06
   1781      1     18     81     -0.8366E-01      0.6804E+06
   1782      1     18     82     -0.9921E-01      0.6804E+06
   1783      1     18     83     -0.1082          0.6804E+06
   1784      1     18     84     -0.1187          0.6804E+06
   1785      1     18     85     -0.1239          0.6804E+06
   1786      1     18     86     -0.1364          0.6804E+06
   1787      1     18     87     -0.1754          0.6804E+06
   1788      1     18     88     -0.1704          0.6804E+06
   1789      1     18     89     -0.1120          0.6804E+06
   1790      1     18     90     -0.7852E-01      0.6804E+06
   1791      1     18     91     -0.5010E-01      0.6804E+06
   1792      1     18     92     -0.1938E-01      0.6804E+06
   1793      1     18     93      0.1274E-01      0.6804E+06
   1794      1     18     94      0.3358E-01      0.6804E+06
   1795      1     18     95      0.4648E-01      0.6804E+06
   1796      1     18     96      0.5397E-01      0.6804E+06
   1797      1     18     97      0.5858E-01      0.6804E+06
   1798      1     18     98      0.6146E-01      0.6804E+06
   1799      1     18     99      0.6370E-01      0.6804E+06
   1800      1     18    100      0.6368E-01      0.6804E+06
   1801      1     19      1      0.5176          0.6804E+06
   1802      1     19      2      0.5056          0.6804E+06
   1803      1     19      3      0.4941          0.6804E+06
   1804      1     19      4      0.4822          0.6804E+06
   1805      1     19      5      0.4725          0.6804E+06
   1806      1     19      6      0.4650          0.6804E+06
   1807      1     19      7      0.4553          0.6804E+06
   1808      1     19      8      0.4415          0.6804E+06
   1809      1     19      9      0.4239          0.6804E+06
   1810      1     19     10      0.3986          0.6804E+06
   1811      1     19     11      0.3731          0.6804E+06
   1812      1     19     12      0.3424          0.6804E+06
   1813      1     19     13      0.3132          0.6804E+06
   1814      1     19     14      0.2912          0.6804E+06
   1815      1     19     15      0.2694          0.6804E+06
   1816      1     19     16      0.2516          0.6804E+06
   1817      1     19     17      0.2320          0.6804E+06
   1818      1     19     18      0.2130          0.6804E+06
   1819      1     19     19      0.1969          0.6804E+06
   1820      1     19     20      0.1786          0.6804E+06
   1821      1     19     21      0.1591          0.6804E+06
   1822      1     19     22      0.1416          0.6804E+06
   1823      1     19     23      0.1216          0.6804E+06
   1824      1     19     24      0.1042          0.6804E+06
   1825      1     19     25      0.8605E-01      0.6804E+06
   1826      1     19     26      0.7284E-01      0.6804E+06
   1827      1     19     27      0.6629E-01      0.6804E+06
   1828      1     19     28      0.6528E-01      0.6804E+06
   1829      1     19     29      0.6610E-01      0.6804E+06
   1830      1     19     30      0.6813E-01      0.6804E+06
   1831      1     19     31      0.7319E-01      0.6804E+06
   1832      1     19     32      0.8027E-01      0.6804E+06
   1833      1     19     33      0.8782E-01      0.6804E+06
   1834      1     19     34      0.9142E-01      0.6804E+06
   1835      1     19     35      0.9206E-01      0.6804E+06
   1836      1     19     36      0.9011E-01      0.6804E+06
   1837      1     19     37      0.8604E-01      0.6804E+06
   1838      1     19     38      0.8684E-01      0.6804E+06
   1839      1     19     39      0.9017E-01      0.6804E+06
   1840      1     19     40      0.9291E-01      0.6804E+06
   1841      1     19     41      0.9369E-01      0.6804E+06
   1842      1     19     42      0.9127E-01      0.6804E+06
   1843      1     19     43      0.9041E-01      0.6804E+06
   1844      1     19     44      0.9178E-01      0.6804E+06
   1845      1     19     45      0.9528E-01      0.6804E+06
   1846      1     19     46      0.9760E-01      0.6804E+06
   1847      1     19     47      0.9823E-01      0.6804E+06
   1848      1     19     48      0.9748E-01      0.6804E+06
   1849      1     19     49      0.9529E-01      0.6804E+06
   1850      1     19     50      0.9284E-01      0.6804E+06
   1851      1     19     51      0.9261E-01      0.6804E+06
   1852      1     19     52      0.9243E-01      0.6804E+06
   1853      1     19     53      0.9105E-01      0.6804E+06
   1854      1     19     54      0.8836E-01      0.6804E+06
   1855      1     19     55      0.8527E-01      0.6804E+06
   1856      1     19     56      0.8289E-01      0.6804E+06
   1857      1     19     57      0.8097E-01      0.6804E+06
   1858      1     19     58      0.7977E-01      0.6804E+06
   1859      1     19     59      0.7843E-01      0.6804E+06
   1860      1     19     60      0.7613E-01      0.6804E+06
   1861      1     19     61      0.7399E-01      0.6804E+06
   1862      1     19     62      0.7179E-01      0.6804E+06
   1863      1     19     63      0.6910E-01      0.6804E+06
   1864      1     19     64      0.6662E-01      0.6804E+06
   1865      1     19     65      0.6244E-01      0.6804E+06
   1866      1     19     66      0.5576E-01      0.6804E+06
   1867      1     19     67      0.4981E-01      0.6804E+06
   1868      1     19     68      0.4356E-01      0.6804E+06
   1869      1     19     69      0.3713E-01      0.6804E+06
   1870      1     19     70      0.2787E-01      0.6804E+06
   1871      1     19     71      0.1825E-01      0.6804E+06
   1872      1     19     72      0.1143E-01      0.6804E+06
   1873      1     19     73       0.000          0.6804E+06
   1874      1     19     74       0.000          0.6804E+06
   1875      1     19     75       0.000          0.6804E+06
   1876      1     19     76     -0.4811E-01      0.6804E+06
   1877      1     19     77     -0.6180E-01      0.6804E+06
   1878      1     19     78     -0.7619E-01      0.6804E+06
   1879      1     19     79     -0.8926E-01      0.6804E+06
   1880      1     19     80     -0.9948E-01      0.6804E+06
   1881      1     19     81     -0.1092          0.6804E+06
   1882      1     19     82     -0.1171          0.6804E+06
   1883      1     19     83     -0.1248          0.6804E+06
   1884      1     19     84     -0.1330          0.6804E+06
   1885      1     19     85     -0.1743          0.6804E+06
   1886      1     19     86     -0.1870          0.6804E+06
   1887      1     19     87     -0.1366          0.6804E+06
   1888      1     19     88     -0.9559E-01      0.6804E+06
   1889      1     19     89     -0.5371E-01      0.6804E+06
   1890      1     19     90     -0.3088E-01      0.6804E+06
   1891      1     19     91       0.000          0.6804E+06
   1892      1     19     92      0.6593E-02      0.6804E+06
   1893      1     19     93      0.2592E-01      0.6804E+06
   1894      1     19     94      0.4330E-01      0.6804E+06
   1895      1     19     95      0.5508E-01      0.6804E+06
   1896      1     19     96      0.6197E-01      0.6804E+06
   1897      1     19     97      0.6685E-01      0.6804E+06
   1898      1     19     98      0.6967E-01      0.6804E+06
   1899      1     19     99      0.7151E-01      0.6804E+06
   1900      1     19    100      0.7148E-01      0.6804E+06
   1901      1     20      1      0.5212          0.6804E+06
   1902      1     20      2      0.5070          0.6804E+06
   1903      1     20      3      0.4923          0.6804E+06
   1904      1     20      4      0.4771          0.6804E+06
   1905      1     20      5      0.4665          0.6804E+06
   1906      1     20      6      0.4589          0.6804E+06
   1907      1     20      7      0.4486          0.6804E+06
   1908      1     20      8      0.4348          0.6804E+06
   1909      1     20      9      0.4189          0.6804E+06
   1910      1     20     10      0.3970          0.6804E+06
   1911      1     20     11      0.3752          0.6804E+06
   1912      1     20     12      0.3487          0.6804E+06
   1913      1     20     13      0.3223          0.6804E+06
   1914      1     20     14      0.3000          0.6804E+06
   1915      1     20     15      0.2755          0.6804E+06
   1916      1     20     16      0.2546          0.6804E+06
   1917      1     20     17      0.2317          0.6804E+06
   1918      1     20     18      0.2100          0.6804E+06
   1919      1     20     19      0.1921          0.6804E+06
   1920      1     20     20      0.1726          0.6804E+06
   1921      1     20     21      0.1514          0.6804E+06
   1922      1     20     22      0.1320          0.6804E+06
   1923      1     20     23      0.1095          0.6804E+06
   1924      1     20     24      0.8968E-01      0.6804E+06
   1925      1     20     25      0.6781E-01      0.6804E+06
   1926      1     20     26      0.5087E-01      0.6804E+06
   1927      1     20     27      0.4460E-01      0.6804E+06
   1928      1     20     28      0.4977E-01      0.6804E+06
   1929      1     20     29      0.4771E-01      0.6804E+06
   1930      1     20     30      0.4847E-01      0.6804E+06
   1931      1     20     31      0.5406E-01      0.6804E+06
   1932      1     20     32      0.6286E-01      0.6804E+06
   1933      1     20     33      0.7250E-01      0.6804E+06
   1934      1     20     34      0.7727E-01      0.6804E+06
   1935      1     20     35      0.7922E-01      0.6804E+06
   1936      1     20     36      0.7916E-01      0.6804E+06
   1937      1     20     37      0.7646E-01      0.6804E+06
   1938      1     20     38      0.7621E-01      0.6804E+06
   1939      1     20     39      0.7841E-01      0.6804E+06
   1940      1     20     40      0.8075E-01      0.6804E+06
   1941      1     20     41      0.8079E-01      0.6804E+06
   1942      1     20     42      0.7755E-01      0.6804E+06
   1943      1     20     43      0.7669E-01      0.6804E+06
   1944      1     20     44      0.7909E-01      0.6804E+06
   1945      1     20     45      0.8425E-01      0.6804E+06
   1946      1     20     46      0.8734E-01      0.6804E+06
   1947      1     20     47      0.8883E-01      0.6804E+06
   1948      1     20     51      0.8471E-01      0.6804E+06
   1949      1     20     52      0.8441E-01      0.6804E+06
   1950      1     20     53      0.8326E-01      0.6804E+06
   1951      1     20     54      0.8101E-01      0.6804E+06
   1952      1     20     55      0.7882E-01      0.6804E+06
   1953      1     20     56      0.7735E-01      0.6804E+06
   1954      1     20     57      0.7594E-01      0.6804E+06
   1955      1     20     58      0.7366E-01      0.6804E+06
   1956      1     20     59      0.7195E-01      0.6804E+06
   1957      1     20     60      0.6980E-01      0.6804E+06
   1958      1     20     61      0.6777E-01      0.6804E+06
   1959      1     20     62      0.6493E-01      0.6804E+06
   1960      1     20     63      0.6146E-01      0.6804E+06
   1961      1     20     64      0.5748E-01      0.6804E+06
   1962      1     20     65      0.5119E-01      0.6804E+06
   1963      1     20     66      0.4242E-01      0.6804E+06
   1964      1     20     67      0.3469E-01      0.6804E+06
   1965      1     20     68      0.2779E-01      0.6804E+06
   1966      1     20     69      0.2071E-01      0.6804E+06
   1967      1     20     70      0.9427E-02      0.6804E+06
   1968      1     20     71       0.000          0.6804E+06
   1969      1     20     72       0.000          0.6804E+06
   1970      1     20     73       0.000          0.6804E+06
   1971      1     20     74     -0.5225E-01      0.6804E+06
   1972      1     20     75     -0.6646E-01      0.6804E+06
   1973      1     20     76     -0.8003E-01      0.6804E+06
   1974      1     20     77     -0.8980E-01      0.6804E+06
   1975      1     20     78     -0.9913E-01      0.6804E+06
   1976      1     20     79     -0.1119          0.6804E+06
   1977      1     20     80     -0.1193          0.6804E+06
   1978      1     20     81     -0.1278          0.6804E+06
   1979      1     20     82     -0.1351          0.6804E+06
   1980      1     20     83     -0.1553          0.6804E+06
   1981      1     20     84     -0.1670          0.6804E+06
   1982      1     20     85     -0.1711          0.6804E+06
   1983      1     20     86     -0.1401          0.6804E+06
   1984      1     20     87     -0.9201E-01      0.6804E+06
   1985      1     20     88     -0.5229E-01      0.6804E+06
   1986      1     20     89       0.000          0.6804E+06
   1987      1     20     90       0.000          0.6804E+06
   1988      1     20     91      0.7465E-02      0.6804E+06
   1989      1     20     92      0.2308E-01      0.6804E+06
   1990      1     20     93      0.3655E-01      0.6804E+06
   1991      1     20     94      0.4974E-01      0.6804E+06
   1992      1     20     95      0.5962E-01      0.6804E+06
   1993      1     20     96      0.6572E-01      0.6804E+06
   1994      1     20     97      0.7040E-01      0.6804E+06
   1995      1     20     98      0.7301E-01      0.6804E+06
   1996      1     20     99      0.7457E-01      0.6804E+06
   1997      1     20    100      0.7499E-01      0.6804E+06
   1998      1     21      1      0.5283          0.6804E+06
   1999      1     21      2      0.5123          0.6804E+06
   2000      1     21      3      0.4940          0.6804E+06
   2001      1     21      4      0.4748          0.6804E+06
   2002      1     21      5      0.4628          0.6804E+06
   2003      1     21      6      0.4548          0.6804E+06
   2004      1     21      7      0.4436          0.6804E+06
   2005      1     21      8      0.4298          0.6804E+06
   2006      1     21      9      0.4154          0.6804E+06
   2007      1     21     10      0.3965          0.6804E+06
   2008      1     21     11      0.3781          0.6804E+06
   2009      1     21     12      0.3558          0.6804E+06
   2010      1     21     13      0.3322          0.6804E+06
   2011      1     21     14      0.3099          0.6804E+06
   2012      1     21     15      0.2825          0.6804E+06
   2013      1     21     16      0.2579          0.6804E+06
   2014      1     21     17      0.2310          0.6804E+06
   2015      1     21     18      0.2059          0.6804E+06
   2016      1     21     19      0.1857          0.6804E+06
   2017      1     21     20      0.1643          0.6804E+06
   2018      1     21     21      0.1420          0.6804E+06
   2019      1     21     22      0.1219          0.6804E+06
   2020      1     21     23      0.9860E-01      0.6804E+06
   2021      1     21     24      0.7769E-01      0.6804E+06
   2022      1     21     25      0.5323E-01      0.6804E+06
   2023      1     21     26      0.2662E-01      0.6804E+06
   2024      1     21     27      0.1951E-01      0.6804E+06
   2025      1     21     28      0.4433E-01      0.6804E+06
   2026      1     21     29      0.2549E-01      0.6804E+06
   2027      1     21     30      0.2099E-01      0.6804E+06
   2028      1     21     31      0.2971E-01      0.6804E+06
   2029      1     21     32      0.4322E-01      0.6804E+06
   2030      1     21     33      0.5650E-01      0.6804E+06
   2031      1     21     34      0.6593E-01      0.6804E+06
   2032      1     21     35      0.7071E-01      0.6804E+06
   2033      1     21     36      0.7173E-01      0.6804E+06
   2034      1     21     37      0.6967E-01      0.6804E+06
   2035      1     21     38      0.6856E-01      0.6804E+06
   2036      1     21     39      0.6954E-01      0.6804E+06
   2037      1     21     40      0.7109E-01      0.6804E+06
   2038      1     21     41      0.6987E-01      0.6804E+06
   2039      1     21     56      0.6843E-01      0.6804E+06
   2040      1     21     57      0.6701E-01      0.6804E+06
   2041      1     21     58      0.6502E-01      0.6804E+06
   2042      1     21     59      0.6282E-01      0.6804E+06
   2043      1     21     60      0.5955E-01      0.6804E+06
   2044      1     21     61      0.5637E-01      0.6804E+06
   2045      1     21     62      0.5239E-01      0.6804E+06
   2046      1     21     63      0.4805E-01      0.6804E+06
   2047      1     21     64      0.4269E-01      0.6804E+06
   2048      1     21     65      0.3382E-01      0.6804E+06
   2049      1     21     66      0.2187E-01      0.6804E+06
   2050      1     21     67      0.1296E-01      0.6804E+06
   2051      1     21     68      0.5722E-02      0.6804E+06
   2052      1     21     69       0.000          0.6804E+06
   2053      1     21     70       0.000          0.6804E+06
   2054      1     21     71       0.000          0.6804E+06
   2055      1     21     72     -0.5984E-01      0.6804E+06
   2056      1     21     73     -0.7586E-01      0.6804E+06
   2057      1     21     74     -0.8862E-01      0.6804E+06
   2058      1     21     75     -0.9608E-01      0.6804E+06
   2059      1     21     76     -0.1089          0.6804E+06
   2060      1     21     77     -0.1181          0.6804E+06
   2061      1     21     78     -0.1232          0.6804E+06
   2062      1     21     79     -0.1322          0.6804E+06
   2063      1     21     80     -0.1400          0.6804E+06
   2064      1     21     81     -0.1672          0.6804E+06
   2065      1     21     82     -0.2166          0.6804E+06
   2066      1     21     83     -0.2055          0.6804E+06
   2067      1     21     84     -0.1453          0.6804E+06
   2068      1     21     85     -0.1382          0.6804E+06
   2069      1     21     86     -0.8910E-01      0.6804E+06
   2070      1     21     87     -0.4775E-01      0.6804E+06
   2071      1     21     88       0.000          0.6804E+06
   2072      1     21     89       0.000          0.6804E+06
   2073      1     21     90      0.1509E-01      0.6804E+06
   2074      1     21     91      0.2457E-01      0.6804E+06
   2075      1     21     92      0.3599E-01      0.6804E+06
   2076      1     21     93      0.4528E-01      0.6804E+06
   2077      1     21     94      0.5461E-01      0.6804E+06
   2078      1     21     95      0.6213E-01      0.6804E+06
   2079      1     21     96      0.6685E-01      0.6804E+06
   2080      1     21     97      0.7109E-01      0.6804E+06
   2081      1     21     98      0.7354E-01      0.6804E+06
   2082      1     21     99      0.7491E-01      0.6804E+06
   2083      1     21    100      0.7587E-01      0.6804E+06
   2084      1     22      1      0.5397          0.6804E+06
   2085      1     22      2      0.5251          0.6804E+06
   2086      1     22      3      0.5058          0.6804E+06
   2087      1     22      4      0.4843          0.6804E+06
   2088      1     22      5      0.4680          0.6804E+06
   2089      1     22      6      0.4561          0.6804E+06
   2090      1     22      7      0.4421          0.6804E+06
   2091      1     22      8      0.4279          0.6804E+06
   2092      1     22      9      0.4141          0.6804E+06
   2093      1     22     10      0.3970          0.6804E+06
   2094      1     22     11      0.3808          0.6804E+06
   2095      1     22     12      0.3618          0.6804E+06
   2096      1     22     13      0.3414          0.6804E+06
   2097      1     22     14      0.3195          0.6804E+06
   2098      1     22     15      0.2880          0.6804E+06
   2099      1     22     16      0.2597          0.6804E+06
   2100      1     22     17      0.2289          0.6804E+06
   2101      1     22     18      0.2005          0.6804E+06
   2102      1     22     19      0.1781          0.6804E+06
   2103      1     22     20      0.1552          0.6804E+06
   2104      1     22     21      0.1331          0.6804E+06
   2105      1     22     22      0.1138          0.6804E+06
   2106      1     22     23      0.9152E-01      0.6804E+06
   2107      1     22     24      0.7177E-01      0.6804E+06
   2108      1     22     25      0.5003E-01      0.6804E+06
   2109      1     22     26      0.3170E-01      0.6804E+06
   2110      1     22     27      0.1332E-01      0.6804E+06
   2111      1     22     28      0.2628E-01      0.6804E+06
   2112      1     22     29       0.000          0.6804E+06
   2113      1     22     30       0.000          0.6804E+06
   2114      1     22     31      0.1089E-01      0.6804E+06
   2115      1     22     32      0.3030E-01      0.6804E+06
   2116      1     22     33      0.4736E-01      0.6804E+06
   2117      1     22     34      0.5962E-01      0.6804E+06
   2118      1     22     35      0.6580E-01      0.6804E+06
   2119      1     22     36      0.6719E-01      0.6804E+06
   2120      1     22     37      0.6602E-01      0.6804E+06
   2121      1     22     38      0.6520E-01      0.6804E+06
   2122      1     22     39      0.6522E-01      0.6804E+06
   2123      1     22     40      0.6541E-01      0.6804E+06
   2124      1     22     58      0.5167E-01      0.6804E+06
   2125      1     22     59      0.4858E-01      0.6804E+06
   2126      1     22     60      0.4324E-01      0.6804E+06
   2127      1     22     61      0.3784E-01      0.6804E+06
   2128      1     22     62      0.3180E-01      0.6804E+06
   2129      1     22     63      0.2760E-01      0.6804E+06
   2130      1     22     64      0.2118E-01      0.6804E+06
   2131      1     22     65      0.1040E-01      0.6804E+06
   2132      1     22     66       0.000          0.6804E+06
   2133      1     22     67       0.000          0.6804E+06
   2134      1     22     68       0.000          0.6804E+06
   2135      1     22     69     -0.5388E-01      0.6804E+06
   2136      1     22     70     -0.7121E-01      0.6804E+06
   2137      1     22     71     -0.8543E-01      0.6804E+06
   2138      1     22     72     -0.9678E-01      0.6804E+06
   2139      1     22     73     -0.1098          0.6804E+06
   2140      1     22     74     -0.1186          0.6804E+06
   2141      1     22     75     -0.1246          0.6804E+06
   2142      1     22     76     -0.1308          0.6804E+06
   2143      1     22     77     -0.1319          0.6804E+06
   2144      1     22     78     -0.1394          0.6804E+06
   2145      1     22     79     -0.1773          0.6804E+06
   2146      1     22     80     -0.2159          0.6804E+06
   2147      1     22     81     -0.1942          0.6804E+06
   2148      1     22     82     -0.1955          0.6804E+06
   2149      1     22     83     -0.1474          0.6804E+06
   2150      1     22     84     -0.1060          0.6804E+06
   2151      1     22     85     -0.6993E-01      0.6804E+06
   2152      1     22     86       0.000          0.6804E+06
   2153      1     22     87       0.000          0.6804E+06
   2154      1     22     88       0.000          0.6804E+06
   2155      1     22     89      0.1211E-01      0.6804E+06
   2156      1     22     90      0.2588E-01      0.6804E+06
   2157      1     22     91      0.3478E-01      0.6804E+06
   2158      1     22     92      0.4396E-01      0.6804E+06
   2159      1     22     93      0.5101E-01      0.6804E+06
   2160      1     22     94      0.5786E-01      0.6804E+06
   2161      1     22     95      0.6308E-01      0.6804E+06
   2162      1     22     96      0.6635E-01      0.6804E+06
   2163      1     22     97      0.6944E-01      0.6804E+06
   2164      1     22     98      0.7140E-01      0.6804E+06
   2165      1     22     99      0.7274E-01      0.6804E+06
   2166      1     22    100      0.7385E-01      0.6804E+06
   2167      1     23      1      0.5520          0.6804E+06
   2168      1     23      2      0.5408          0.6804E+06
   2169      1     23      3      0.5202          0.6804E+06
   2170      1     23      4      0.4966          0.6804E+06
   2171      1     23      5      0.4765          0.6804E+06
   2172      1     23      6      0.4610          0.6804E+06
   2173      1     23      7      0.4440          0.6804E+06
   2174      1     23      8      0.4285          0.6804E+06
   2175      1     23      9      0.4144          0.6804E+06
   2176      1     23     10      0.3974          0.6804E+06
   2177      1     23     11      0.3819          0.6804E+06
   2178      1     23     12      0.3644          0.6804E+06
   2179      1     23     13      0.3474          0.6804E+06
   2180      1     23     14      0.3260          0.6804E+06
   2181      1     23     15      0.2897          0.6804E+06
   2182      1     23     16      0.2587          0.6804E+06
   2183      1     23     17      0.2254          0.6804E+06
   2184      1     23     18      0.1947          0.6804E+06
   2185      1     23     19      0.1708          0.6804E+06
   2186      1     23     20      0.1478          0.6804E+06
   2187      1     23     21      0.1265          0.6804E+06
   2188      1     23     22      0.1084          0.6804E+06
   2189      1     23     23      0.8793E-01      0.6804E+06
   2190      1     23     24      0.7006E-01      0.6804E+06
   2191      1     23     25      0.5140E-01      0.6804E+06
   2192      1     23     26      0.3883E-01      0.6804E+06
   2193      1     23     27      0.2785E-01      0.6804E+06
   2194      1     23     28       0.000          0.6804E+06
   2195      1     23     29       0.000          0.6804E+06
   2196      1     23     30       0.000          0.6804E+06
   2197      1     23     31      0.9357E-02      0.6804E+06
   2198      1     23     32      0.2478E-01      0.6804E+06
   2199      1     23     33      0.4210E-01      0.6804E+06
   2200      1     23     34      0.5482E-01      0.6804E+06
   2201      1     23     35      0.6166E-01      0.6804E+06
   2202      1     23     36      0.6455E-01      0.6804E+06
   2203      1     23     37      0.6526E-01      0.6804E+06
   2204      1     23     38      0.6508E-01      0.6804E+06
   2205      1     23     59      0.3087E-01      0.6804E+06
   2206      1     23     60      0.2388E-01      0.6804E+06
   2207      1     23     61      0.1734E-01      0.6804E+06
   2208      1     23     62      0.9759E-02      0.6804E+06
   2209      1     23     63      0.3691E-04      0.6804E+06
   2210      1     23     64       0.000          0.6804E+06
   2211      1     23     65       0.000          0.6804E+06
   2212      1     23     66       0.000          0.6804E+06
   2213      1     23     67     -0.6429E-01      0.6804E+06
   2214      1     23     68     -0.7789E-01      0.6804E+06
   2215      1     23     69     -0.8895E-01      0.6804E+06
   2216      1     23     70     -0.9971E-01      0.6804E+06
   2217      1     23     71     -0.1150          0.6804E+06
   2218      1     23     72     -0.1293          0.6804E+06
   2219      1     23     73     -0.1382          0.6804E+06
   2220      1     23     74     -0.1395          0.6804E+06
   2221      1     23     75     -0.1378          0.6804E+06
   2222      1     23     76     -0.1377          0.6804E+06
   2223      1     23     77     -0.1564          0.6804E+06
   2224      1     23     78     -0.1950          0.6804E+06
   2225      1     23     79     -0.2110          0.6804E+06
   2226      1     23     80     -0.1932          0.6804E+06
   2227      1     23     81     -0.1496          0.6804E+06
   2228      1     23     82     -0.1241          0.6804E+06
   2229      1     23     83     -0.1013          0.6804E+06
   2230      1     23     84     -0.5873E-01      0.6804E+06
   2231      1     23     85       0.000          0.6804E+06
   2232      1     23     86       0.000          0.6804E+06
   2233      1     23     87       0.000          0.6804E+06
   2234      1     23     88      0.6357E-02      0.6804E+06
   2235      1     23     89      0.2101E-01      0.6804E+06
   2236      1     23     90      0.3282E-01      0.6804E+06
   2237      1     23     91      0.4095E-01      0.6804E+06
   2238      1     23     92      0.4867E-01      0.6804E+06
   2239      1     23     93      0.5437E-01      0.6804E+06
   2240      1     23     94      0.5959E-01      0.6804E+06
   2241      1     23     95      0.6295E-01      0.6804E+06
   2242      1     23     96      0.6479E-01      0.6804E+06
   2243      1     23     97      0.6647E-01      0.6804E+06
   2244      1     23     98      0.6781E-01      0.6804E+06
   2245      1     23     99      0.6939E-01      0.6804E+06
   2246      1     23    100      0.7081E-01      0.6804E+06
   2247      1     24      1      0.5624          0.6804E+06
   2248      1     24      2      0.5533          0.6804E+06
   2249      1     24      3      0.5331          0.6804E+06
   2250      1     24      4      0.5089          0.6804E+06
   2251      1     24      5      0.4865          0.6804E+06
   2252      1     24      6      0.4684          0.6804E+06
   2253      1     24      7      0.4489          0.6804E+06
   2254      1     24      8      0.4311          0.6804E+06
   2255      1     24      9      0.4154          0.6804E+06
   2256      1     24     10      0.3970          0.6804E+06
   2257      1     24     11      0.3804          0.6804E+06
   2258      1     24     12      0.3613          0.6804E+06
   2259      1     24     13      0.3411          0.6804E+06
   2260      1     24     14      0.3183          0.6804E+06
   2261      1     24     15      0.2838          0.6804E+06
   2262      1     24     16      0.2530          0.6804E+06
   2263      1     24     17      0.2191          0.6804E+06
   2264      1     24     18      0.1875          0.6804E+06
   2265      1     24     19      0.1630          0.6804E+06
   2266      1     24     20      0.1408          0.6804E+06
   2267      1     24     21      0.1210          0.6804E+06
   2268      1     24     22      0.1045          0.6804E+06
   2269      1     24     23      0.8624E-01      0.6804E+06
   2270      1     24     24      0.7046E-01      0.6804E+06
   2271      1     24     25      0.5300E-01      0.6804E+06
   2272      1     24     26      0.3452E-01      0.6804E+06
   2273      1     24     27      0.1671E-01      0.6804E+06
   2274      1     24     28       0.000          0.6804E+06
   2275      1     24     29       0.000          0.6804E+06
   2276      1     24     30       0.000          0.6804E+06
   2277      1     24     31      0.8186E-02      0.6804E+06
   2278      1     24     32      0.2327E-01      0.6804E+06
   2279      1     24     33      0.3770E-01      0.6804E+06
   2280      1     24     34      0.4867E-01      0.6804E+06
   2281      1     24     35      0.5470E-01      0.6804E+06
   2282      1     24     36      0.5938E-01      0.6804E+06
   2283      1     24     37      0.6178E-01      0.6804E+06
   2284      1     24     59      0.2941E-02      0.6804E+06
   2285      1     24     60       0.000          0.6804E+06
   2286      1     24     61       0.000          0.6804E+06
   2287      1     24     62       0.000          0.6804E+06
   2288      1     24     63       0.000          0.6804E+06
   2289      1     24     64     -0.6944E-01      0.6804E+06
   2290      1     24     65     -0.8212E-01      0.6804E+06
   2291      1     24     66     -0.9335E-01      0.6804E+06
   2292      1     24     67     -0.1019          0.6804E+06
   2293      1     24     68     -0.1167          0.6804E+06
   2294      1     24     69     -0.1275          0.6804E+06
   2295      1     24     70     -0.1398          0.6804E+06
   2296      1     24     71     -0.1495          0.6804E+06
   2297      1     24     72     -0.1539          0.6804E+06
   2298      1     24     73     -0.1523          0.6804E+06
   2299      1     24     74     -0.1554          0.6804E+06
   2300      1     24     75     -0.1661          0.6804E+06
   2301      1     24     76     -0.1933          0.6804E+06
   2302      1     24     77     -0.1703          0.6804E+06
   2303      1     24     78     -0.1617          0.6804E+06
   2304      1     24     79     -0.1706          0.6804E+06
   2305      1     24     80     -0.1427          0.6804E+06
   2306      1     24     81     -0.1124          0.6804E+06
   2307      1     24     82     -0.9734E-01      0.6804E+06
   2308      1     24     83     -0.6116E-01      0.6804E+06
   2309      1     24     84       0.000          0.6804E+06
   2310      1     24     85       0.000          0.6804E+06
   2311      1     24     86       0.000          0.6804E+06
   2312      1     24     87      0.2322E-02      0.6804E+06
   2313      1     24     88      0.1604E-01      0.6804E+06
   2314      1     24     89      0.2915E-01      0.6804E+06
   2315      1     24     90      0.3942E-01      0.6804E+06
   2316      1     24     91      0.4656E-01      0.6804E+06
   2317      1     24     92      0.5278E-01      0.6804E+06
   2318      1     24     93      0.5706E-01      0.6804E+06
   2319      1     24     94      0.6060E-01      0.6804E+06
   2320      1     24     95      0.6215E-01      0.6804E+06
   2321      1     24     96      0.6236E-01      0.6804E+06
   2322      1     24     97      0.6226E-01      0.6804E+06
   2323      1     24     98      0.6281E-01      0.6804E+06
   2324      1     24     99      0.6511E-01      0.6804E+06
   2325      1     24    100      0.6697E-01      0.6804E+06
   2326      1     25      1      0.5653          0.6804E+06
   2327      1     25      2      0.5549          0.6804E+06
   2328      1     25      3      0.5380          0.6804E+06
   2329      1     25      4      0.5159          0.6804E+06
   2330      1     25      5      0.4937          0.6804E+06
   2331      1     25      6      0.4749          0.6804E+06
   2332      1     25      7      0.4542          0.6804E+06
   2333      1     25      8      0.4340          0.6804E+06
   2334      1     25      9      0.4163          0.6804E+06
   2335      1     25     10      0.3957          0.6804E+06
   2336      1     25     11      0.3771          0.6804E+06
   2337      1     25     12      0.3553          0.6804E+06
   2338      1     25     13      0.3314          0.6804E+06
   2339      1     25     14      0.3072          0.6804E+06
   2340      1     25     15      0.2747          0.6804E+06
   2341      1     25     16      0.2452          0.6804E+06
   2342      1     25     17      0.2125          0.6804E+06
   2343      1     25     18      0.1819          0.6804E+06
   2344      1     25     19      0.1584          0.6804E+06
   2345      1     25     20      0.1368          0.6804E+06
   2346      1     25     21      0.1181          0.6804E+06
   2347      1     25     22      0.1030          0.6804E+06
   2348      1     25     23      0.8645E-01      0.6804E+06
   2349      1     25     24      0.7199E-01      0.6804E+06
   2350      1     25     25      0.5572E-01      0.6804E+06
   2351      1     25     26      0.3935E-01      0.6804E+06
   2352      1     25     27      0.2706E-01      0.6804E+06
   2353      1     25     28      0.1401E-01      0.6804E+06
   2354      1     25     29       0.000          0.6804E+06
   2355      1     25     30       0.000          0.6804E+06
   2356      1     25     31       0.000          0.6804E+06
   2357      1     25     32      0.1571E-01      0.6804E+06
   2358      1     25     33      0.3252E-01      0.6804E+06
   2359      1     25     34      0.3917E-01      0.6804E+06
   2360      1     25     35      0.4461E-01      0.6804E+06
   2361      1     25     36      0.5089E-01      0.6804E+06
   2362      1     25     60     -0.5845E-01      0.6804E+06
   2363      1     25     61     -0.6980E-01      0.6804E+06
   2364      1     25     62     -0.8115E-01      0.6804E+06
   2365      1     25     63     -0.9852E-01      0.6804E+06
   2366      1     25     64     -0.1112          0.6804E+06
   2367      1     25     65     -0.1245          0.6804E+06
   2368      1     25     66     -0.1429          0.6804E+06
   2369      1     25     67     -0.1540          0.6804E+06
   2370      1     25     68     -0.1563          0.6804E+06
   2371      1     25     69     -0.1533          0.6804E+06
   2372      1     25     70     -0.1554          0.6804E+06
   2373      1     25     71     -0.1575          0.6804E+06
   2374      1     25     72     -0.1625          0.6804E+06
   2375      1     25     73     -0.1936          0.6804E+06
   2376      1     25     74     -0.2176          0.6804E+06
   2377      1     25     75     -0.2075          0.6804E+06
   2378      1     25     76     -0.1673          0.6804E+06
   2379      1     25     77     -0.1284          0.6804E+06
   2380      1     25     78     -0.1172          0.6804E+06
   2381      1     25     79     -0.1462          0.6804E+06
   2382      1     25     80     -0.1218          0.6804E+06
   2383      1     25     81     -0.9369E-01      0.6804E+06
   2384      1     25     82     -0.6169E-01      0.6804E+06
   2385      1     25     83       0.000          0.6804E+06
   2386      1     25     84       0.000          0.6804E+06
   2387      1     25     85       0.000          0.6804E+06
   2388      1     25     86       0.000          0.6804E+06
   2389      1     25     87      0.1247E-01      0.6804E+06
   2390      1     25     88      0.2401E-01      0.6804E+06
   2391      1     25     89      0.3567E-01      0.6804E+06
   2392      1     25     90      0.4502E-01      0.6804E+06
   2393      1     25     91      0.5082E-01      0.6804E+06
   2394      1     25     92      0.5601E-01      0.6804E+06
   2395      1     25     93      0.5913E-01      0.6804E+06
   2396      1     25     94      0.6110E-01      0.6804E+06
   2397      1     25     95      0.6148E-01      0.6804E+06
   2398      1     25     96      0.6053E-01      0.6804E+06
   2399      1     25     97      0.5908E-01      0.6804E+06
   2400      1     25     98      0.5901E-01      0.6804E+06
   2401      1     25     99      0.6198E-01      0.6804E+06
   2402      1     25    100      0.6405E-01      0.6804E+06
   2403      1     26      1      0.5662          0.6804E+06
   2404      1     26      2      0.5547          0.6804E+06
   2405      1     26      3      0.5400          0.6804E+06
   2406      1     26      4      0.5203          0.6804E+06
   2407      1     26      5      0.4994          0.6804E+06
   2408      1     26      6      0.4808          0.6804E+06
   2409      1     26      7      0.4592          0.6804E+06
   2410      1     26      8      0.4370          0.6804E+06
   2411      1     26      9      0.4169          0.6804E+06
   2412      1     26     10      0.3932          0.6804E+06
   2413      1     26     11      0.3718          0.6804E+06
   2414      1     26     12      0.3464          0.6804E+06
   2415      1     26     13      0.3195          0.6804E+06
   2416      1     26     14      0.2940          0.6804E+06
   2417      1     26     15      0.2625          0.6804E+06
   2418      1     26     16      0.2345          0.6804E+06
   2419      1     26     17      0.2036          0.6804E+06
   2420      1     26     18      0.1750          0.6804E+06
   2421      1     26     19      0.1534          0.6804E+06
   2422      1     26     20      0.1329          0.6804E+06
   2423      1     26     21      0.1157          0.6804E+06
   2424      1     26     22      0.1024          0.6804E+06
   2425      1     26     23      0.8794E-01      0.6804E+06
   2426      1     26     24      0.7524E-01      0.6804E+06
   2427      1     26     25      0.6133E-01      0.6804E+06
   2428      1     26     26      0.4701E-01      0.6804E+06
   2429      1     26     27      0.3422E-01      0.6804E+06
   2430      1     26     28      0.2046E-01      0.6804E+06
   2431      1     26     29      0.3216E-02      0.6804E+06
   2432      1     26     30      0.6492E-02      0.6804E+06
   2433      1     26     31      0.1430E-01      0.6804E+06
   2434      1     26     32      0.1045E-01      0.6804E+06
   2435      1     26     33      0.1367E-01      0.6804E+06
   2436      1     26     34      0.2058E-01      0.6804E+06
   2437      1     26     35      0.2278E-01      0.6804E+06
   2438      1     26     36      0.3259E-01      0.6804E+06
   2439      1     26     60     -0.1136          0.6804E+06
   2440      1     26     61     -0.1314          0.6804E+06
   2441      1     26     62     -0.1392          0.6804E+06
   2442      1     26     63     -0.1579          0.6804E+06
   2443      1     26     64     -0.1656          0.6804E+06
   2444      1     26     65     -0.1685          0.6804E+06
   2445      1     26     66     -0.1647          0.6804E+06
   2446      1     26     67     -0.1576          0.6804E+06
   2447      1     26     68     -0.1543          0.6804E+06
   2448      1     26     69     -0.1562          0.6804E+06
   2449      1     26     70     -0.1770          0.6804E+06
   2450      1     26     71     -0.2020          0.6804E+06
   2451      1     26     72     -0.2427          0.6804E+06
   2452      1     26     73     -0.2004          0.6804E+06
   2453      1     26     74     -0.1797          0.6804E+06
   2454      1     26     75     -0.1721          0.6804E+06
   2455      1     26     76     -0.1524          0.6804E+06
   2456      1     26     77     -0.1368          0.6804E+06
   2457      1     26     78     -0.1045          0.6804E+06
   2458      1     26     79     -0.1009          0.6804E+06
   2459      1     26     80     -0.8650E-01      0.6804E+06
   2460      1     26     81     -0.5502E-01      0.6804E+06
   2461      1     26     82       0.000          0.6804E+06
   2462      1     26     83       0.000          0.6804E+06
   2463      1     26     84       0.000          0.6804E+06
   2464      1     26     85      0.3170E-02      0.6804E+06
   2465      1     26     86      0.1374E-01      0.6804E+06
   2466      1     26     87      0.2449E-01      0.6804E+06
   2467      1     26     88      0.3370E-01      0.6804E+06
   2468      1     26     89      0.4341E-01      0.6804E+06
   2469      1     26     90      0.5110E-01      0.6804E+06
   2470      1     26     91      0.5584E-01      0.6804E+06
   2471      1     26     92      0.5959E-01      0.6804E+06
   2472      1     26     93      0.6149E-01      0.6804E+06
   2473      1     26     94      0.6230E-01      0.6804E+06
   2474      1     26     95      0.6188E-01      0.6804E+06
   2475      1     26     96      0.6060E-01      0.6804E+06
   2476      1     26     97      0.5918E-01      0.6804E+06
   2477      1     26     98      0.5893E-01      0.6804E+06
   2478      1     26     99      0.6070E-01      0.6804E+06
   2479      1     26    100      0.6231E-01      0.6804E+06
   2480      1     27      1      0.5670          0.6804E+06
   2481      1     27      2      0.5548          0.6804E+06
   2482      1     27      3      0.5411          0.6804E+06
   2483      1     27      4      0.5230          0.6804E+06
   2484      1     27      5      0.5033          0.6804E+06
   2485      1     27      6      0.4853          0.6804E+06
   2486      1     27      7      0.4633          0.6804E+06
   2487      1     27      8      0.4393          0.6804E+06
   2488      1     27      9      0.4168          0.6804E+06
   2489      1     27     10      0.3899          0.6804E+06
   2490      1     27     11      0.3657          0.6804E+06
   2491      1     27     12      0.3373          0.6804E+06
   2492      1     27     13      0.3080          0.6804E+06
   2493      1     27     14      0.2813          0.6804E+06
   2494      1     27     15      0.2500          0.6804E+06
   2495      1     27     16      0.2230          0.6804E+06
   2496      1     27     17      0.1934          0.6804E+06
   2497      1     27     18      0.1666          0.6804E+06
   2498      1     27     19      0.1470          0.6804E+06
   2499      1     27     20      0.1288          0.6804E+06
   2500      1     27     21      0.1138          0.6804E+06
   2501      1     27     22      0.1025          0.6804E+06
   2502      1     27     23      0.9048E-01      0.6804E+06
   2503      1     27     24      0.7985E-01      0.6804E+06
   2504      1     27     25      0.6826E-01      0.6804E+06
   2505      1     27     26      0.5537E-01      0.6804E+06
   2506      1     27     27      0.4182E-01      0.6804E+06
   2507      1     27     28      0.2446E-01      0.6804E+06
   2508      1     27     29      0.7162E-02      0.6804E+06
   2509      1     27     30      0.1566E-02      0.6804E+06
   2510      1     27     31       0.000          0.6804E+06
   2511      1     27     32       0.000          0.6804E+06
   2512      1     27     33      0.7411E-02      0.6804E+06
   2513      1     27     34      0.1019E-01      0.6804E+06
   2514      1     27     35      0.9729E-02      0.6804E+06
   2515      1     27     60     -0.1669          0.6804E+06
   2516      1     27     61     -0.1695          0.6804E+06
   2517      1     27     62     -0.1695          0.6804E+06
   2518      1     27     63     -0.1640          0.6804E+06
   2519      1     27     64     -0.1552          0.6804E+06
   2520      1     27     65     -0.1487          0.6804E+06
   2521      1     27     66     -0.1467          0.6804E+06
   2522      1     27     67     -0.1566          0.6804E+06
   2523      1     27     68     -0.1705          0.6804E+06
   2524      1     27     69     -0.1952          0.6804E+06
   2525      1     27     70     -0.2166          0.6804E+06
   2526      1     27     71     -0.1907          0.6804E+06
   2527      1     27     72     -0.1551          0.6804E+06
   2528      1     27     73     -0.1254          0.6804E+06
   2529      1     27     74     -0.1171          0.6804E+06
   2530      1     27     75     -0.1069          0.6804E+06
   2531      1     27     76     -0.1040          0.6804E+06
   2532      1     27     77     -0.1249          0.6804E+06
   2533      1     27     78     -0.1072          0.6804E+06
   2534      1     27     79     -0.8735E-01      0.6804E+06
   2535      1     27     80       0.000          0.6804E+06
   2536      1     27     81       0.000          0.6804E+06
   2537      1     27     82       0.000          0.6804E+06
   2538      1     27     83       0.000          0.6804E+06
   2539      1     27     84      0.8255E-02      0.6804E+06
   2540      1     27     85      0.1729E-01      0.6804E+06
   2541      1     27     86      0.2705E-01      0.6804E+06
   2542      1     27     87      0.3572E-01      0.6804E+06
   2543      1     27     88      0.4322E-01      0.6804E+06
   2544      1     27     89      0.5101E-01      0.6804E+06
   2545      1     27     90      0.5687E-01      0.6804E+06
   2546      1     27     91      0.6061E-01      0.6804E+06
   2547      1     27     92      0.6297E-01      0.6804E+06
   2548      1     27     93      0.6383E-01      0.6804E+06
   2549      1     27     94      0.6386E-01      0.6804E+06
   2550      1     27     95      0.6304E-01      0.6804E+06
   2551      1     27     96      0.6184E-01      0.6804E+06
   2552      1     27     97      0.6064E-01      0.6804E+06
   2553      1     27     98      0.6021E-01      0.6804E+06
   2554      1     27     99      0.6093E-01      0.6804E+06
   2555      1     27    100      0.6193E-01      0.6804E+06
   2556      1     28      1      0.5681          0.6804E+06
   2557      1     28      2      0.5553          0.6804E+06
   2558      1     28      3      0.5419          0.6804E+06
   2559      1     28      4      0.5244          0.6804E+06
   2560      1     28      5      0.5055          0.6804E+06
   2561      1     28      6      0.4880          0.6804E+06
   2562      1     28      7      0.4664          0.6804E+06
   2563      1     28      8      0.4407          0.6804E+06
   2564      1     28      9      0.4160          0.6804E+06
   2565      1     28     10      0.3865          0.6804E+06
   2566      1     28     11      0.3601          0.6804E+06
   2567      1     28     12      0.3294          0.6804E+06
   2568      1     28     13      0.2984          0.6804E+06
   2569      1     28     14      0.2709          0.6804E+06
   2570      1     28     15      0.2394          0.6804E+06
   2571      1     28     16      0.2126          0.6804E+06
   2572      1     28     17      0.1836          0.6804E+06
   2573      1     28     18      0.1579          0.6804E+06
   2574      1     28     19      0.1401          0.6804E+06
   2575      1     28     20      0.1246          0.6804E+06
   2576      1     28     21      0.1124          0.6804E+06
   2577      1     28     22      0.1032          0.6804E+06
   2578      1     28     23      0.9354E-01      0.6804E+06
   2579      1     28     24      0.8489E-01      0.6804E+06
   2580      1     28     25      0.7478E-01      0.6804E+06
   2581      1     28     26      0.6319E-01      0.6804E+06
   2582      1     28     27      0.5140E-01      0.6804E+06
   2583      1     28     28      0.3795E-01      0.6804E+06
   2584      1     28     29      0.2614E-01      0.6804E+06
   2585      1     28     30      0.1001E-01      0.6804E+06
   2586      1     28     31       0.000          0.6804E+06
   2587      1     28     32       0.000          0.6804E+06
   2588      1     28     33     -0.2370E-01      0.6804E+06
   2589      1     28     34     -0.2966E-01      0.6804E+06
   2590      1     28     35     -0.3834E-01      0.6804E+06
   2591      1     28     60     -0.1601          0.6804E+06
   2592      1     28     61     -0.1565          0.6804E+06
   2593      1     28     62     -0.1534          0.6804E+06
   2594      1     28     63     -0.1489          0.6804E+06
   2595      1     28     64     -0.1477          0.6804E+06
   2596      1     28     65     -0.1612          0.6804E+06
   2597      1     28     66     -0.1845          0.6804E+06
   2598      1     28     67     -0.2015          0.6804E+06
   2599      1     28     68     -0.1858          0.6804E+06
   2600      1     28     69     -0.1682          0.6804E+06
   2601      1     28     70     -0.1525          0.6804E+06
   2602      1     28     71     -0.1304          0.6804E+06
   2603      1     28     72     -0.1094          0.6804E+06
   2604      1     28     73     -0.9369E-01      0.6804E+06
   2605      1     28     74     -0.8945E-01      0.6804E+06
   2606      1     28     75     -0.8233E-01      0.6804E+06
   2607      1     28     76     -0.6371E-01      0.6804E+06
   2608      1     28     77     -0.8235E-01      0.6804E+06
   2609      1     28     78       0.000          0.6804E+06
   2610      1     28     79       0.000          0.6804E+06
   2611      1     28     80       0.000          0.6804E+06
   2612      1     28     81       0.000          0.6804E+06
   2613      1     28     82       0.000          0.6804E+06
   2614      1     28     83      0.4225E-02      0.6804E+06
   2615      1     28     84      0.1971E-01      0.6804E+06
   2616      1     28     85      0.2828E-01      0.6804E+06
   2617      1     28     86      0.3682E-01      0.6804E+06
   2618      1     28     87      0.4423E-01      0.6804E+06
   2619      1     28     88      0.5042E-01      0.6804E+06
   2620      1     28     89      0.5677E-01      0.6804E+06
   2621      1     28     90      0.6140E-01      0.6804E+06
   2622      1     28     91      0.6408E-01      0.6804E+06
   2623      1     28     92      0.6547E-01      0.6804E+06
   2624      1     28     93      0.6569E-01      0.6804E+06
   2625      1     28     94      0.6522E-01      0.6804E+06
   2626      1     28     95      0.6421E-01      0.6804E+06
   2627      1     28     96      0.6312E-01      0.6804E+06
   2628      1     28     97      0.6201E-01      0.6804E+06
   2629      1     28     98      0.6146E-01      0.6804E+06
   2630      1     28     99      0.6161E-01      0.6804E+06
   2631      1     28    100      0.6221E-01      0.6804E+06
   2632      1     29      1      0.5700          0.6804E+06
   2633      1     29      2      0.5563          0.6804E+06
   2634      1     29      3      0.5425          0.6804E+06
   2635      1     29      4      0.5251          0.6804E+06
   2636      1     29      5      0.5063          0.6804E+06
   2637      1     29      6      0.4890          0.6804E+06
   2638      1     29      7      0.4675          0.6804E+06
   2639      1     29      8      0.4403          0.6804E+06
   2640      1     29      9      0.4137          0.6804E+06
   2641      1     29     10      0.3820          0.6804E+06
   2642      1     29     11      0.3536          0.6804E+06
   2643      1     29     12      0.3207          0.6804E+06
   2644      1     29     13      0.2882          0.6804E+06
   2645      1     29     14      0.2600          0.6804E+06
   2646      1     29     15      0.2281          0.6804E+06
   2647      1     29     16      0.2013          0.6804E+06
   2648      1     29     17      0.1726          0.6804E+06
   2649      1     29     18      0.1479          0.6804E+06
   2650      1     29     19      0.1323          0.6804E+06
   2651      1     29     20      0.1201          0.6804E+06
   2652      1     29     21      0.1111          0.6804E+06
   2653      1     29     22      0.1046          0.6804E+06
   2654      1     29     23      0.9788E-01      0.6804E+06
   2655      1     29     24      0.9167E-01      0.6804E+06
   2656      1     29     25      0.8335E-01      0.6804E+06
   2657      1     29     26      0.7366E-01      0.6804E+06
   2658      1     29     27      0.6466E-01      0.6804E+06
   2659      1     29     28      0.5424E-01      0.6804E+06
   2660      1     29     29      0.4269E-01      0.6804E+06
   2661      1     29     30      0.3068E-01      0.6804E+06
   2662      1     29     31      0.1058E-01      0.6804E+06
   2663      1     29     32     -0.2452E-01      0.6804E+06
   2664      1     29     33     -0.6142E-01      0.6804E+06
   2665      1     29     34     -0.1176          0.6804E+06
   2666      1     29     60     -0.1426          0.6804E+06
   2667      1     29     61     -0.1485          0.6804E+06
   2668      1     29     62     -0.1593          0.6804E+06
   2669      1     29     63     -0.1783          0.6804E+06
   2670      1     29     64     -0.1805          0.6804E+06
   2671      1     29     65     -0.1835          0.6804E+06
   2672      1     29     66     -0.1853          0.6804E+06
   2673      1     29     67     -0.1685          0.6804E+06
   2674      1     29     68     -0.1458          0.6804E+06
   2675      1     29     69     -0.1241          0.6804E+06
   2676      1     29     70     -0.1134          0.6804E+06
   2677      1     29     71     -0.1011          0.6804E+06
   2678      1     29     72     -0.7897E-01      0.6804E+06
   2679      1     29     73     -0.6220E-01      0.6804E+06
   2680      1     29     74     -0.6153E-01      0.6804E+06
   2681      1     29     75     -0.5850E-01      0.6804E+06
   2682      1     29     76       0.000          0.6804E+06
   2683      1     29     77       0.000          0.6804E+06
   2684      1     29     78       0.000          0.6804E+06
   2685      1     29     79       0.000          0.6804E+06
   2686      1     29     80       0.000          0.6804E+06
   2687      1     29     81       0.000          0.6804E+06
   2688      1     29     82       0.000          0.6804E+06
   2689      1     29     83      0.1538E-01      0.6804E+06
   2690      1     29     84      0.2834E-01      0.6804E+06
   2691      1     29     85      0.3735E-01      0.6804E+06
   2692      1     29     86      0.4524E-01      0.6804E+06
   2693      1     29     87      0.5186E-01      0.6804E+06
   2694      1     29     88      0.5690E-01      0.6804E+06
   2695      1     29     89      0.6171E-01      0.6804E+06
   2696      1     29     90      0.6499E-01      0.6804E+06
   2697      1     29     91      0.6662E-01      0.6804E+06
   2698      1     29     92      0.6732E-01      0.6804E+06
   2699      1     29     93      0.6720E-01      0.6804E+06
   2700      1     29     94      0.6645E-01      0.6804E+06
   2701      1     29     95      0.6533E-01      0.6804E+06
   2702      1     29     96      0.6422E-01      0.6804E+06
   2703      1     29     97      0.6315E-01      0.6804E+06
   2704      1     29     98      0.6261E-01      0.6804E+06
   2705      1     29     99      0.6248E-01      0.6804E+06
   2706      1     29    100      0.6280E-01      0.6804E+06
   2707      1     30      1      0.5723          0.6804E+06
   2708      1     30      2      0.5574          0.6804E+06
   2709      1     30      3      0.5428          0.6804E+06
   2710      1     30      4      0.5247          0.6804E+06
   2711      1     30      5      0.5052          0.6804E+06
   2712      1     30      6      0.4870          0.6804E+06
   2713      1     30      7      0.4642          0.6804E+06
   2714      1     30      8      0.4366          0.6804E+06
   2715      1     30      9      0.4097          0.6804E+06
   2716      1     30     10      0.3771          0.6804E+06
   2717      1     30     11      0.3475          0.6804E+06
   2718      1     30     12      0.3131          0.6804E+06
   2719      1     30     13      0.2793          0.6804E+06
   2720      1     30     14      0.2507          0.6804E+06
   2721      1     30     15      0.2184          0.6804E+06
   2722      1     30     16      0.1913          0.6804E+06
   2723      1     30     17      0.1628          0.6804E+06
   2724      1     30     18      0.1394          0.6804E+06
   2725      1     30     19      0.1259          0.6804E+06
   2726      1     30     20      0.1165          0.6804E+06
   2727      1     30     21      0.1105          0.6804E+06
   2728      1     30     22      0.1066          0.6804E+06
   2729      1     30     23      0.1026          0.6804E+06
   2730      1     30     24      0.9869E-01      0.6804E+06
   2731      1     30     25      0.9259E-01      0.6804E+06
   2732      1     30     26      0.8508E-01      0.6804E+06
   2733      1     30     27      0.7842E-01      0.6804E+06
   2734      1     30     28      0.6991E-01      0.6804E+06
   2735      1     30     29      0.5887E-01      0.6804E+06
   2736      1     30     30      0.4643E-01      0.6804E+06
   2737      1     30     31      0.2974E-01      0.6804E+06
   2738      1     30     32      0.5549E-02      0.6804E+06
   2739      1     30     33     -0.8317E-01      0.6804E+06
   2740      1     30     60     -0.1572          0.6804E+06
   2741      1     30     61     -0.1861          0.6804E+06
   2742      1     30     62     -0.1805          0.6804E+06
   2743      1     30     63     -0.1792          0.6804E+06
   2744      1     30     64     -0.1654          0.6804E+06
   2745      1     30     65     -0.1576          0.6804E+06
   2746      1     30     66     -0.1482          0.6804E+06
   2747      1     30     67     -0.1200          0.6804E+06
   2748      1     30     68     -0.1172          0.6804E+06
   2749      1     30     69     -0.1047          0.6804E+06
   2750      1     30     70     -0.8185E-01      0.6804E+06
   2751      1     30     71     -0.6986E-01      0.6804E+06
   2752      1     30     72     -0.6020E-01      0.6804E+06
   2753      1     30     73     -0.5015E-01      0.6804E+06
   2754      1     30     74       0.000          0.6804E+06
   2755      1     30     75       0.000          0.6804E+06
   2756      1     30     76       0.000          0.6804E+06
   2757      1     30     77       0.000          0.6804E+06
   2758      1     30     78       0.000          0.6804E+06
   2759      1     30     79       0.000          0.6804E+06
   2760      1     30     80       0.000          0.6804E+06
   2761      1     30     81       0.000          0.6804E+06
   2762      1     30     82      0.9039E-02      0.6804E+06
   2763      1     30     83      0.2266E-01      0.6804E+06
   2764      1     30     84      0.3518E-01      0.6804E+06
   2765      1     30     85      0.4412E-01      0.6804E+06
   2766      1     30     86      0.5162E-01      0.6804E+06
   2767      1     30     87      0.5758E-01      0.6804E+06
   2768      1     30     88      0.6165E-01      0.6804E+06
   2769      1     30     89      0.6516E-01      0.6804E+06
   2770      1     30     90      0.6738E-01      0.6804E+06
   2771      1     30     91      0.6840E-01      0.6804E+06
   2772      1     30     92      0.6858E-01      0.6804E+06
   2773      1     30     93      0.6810E-01      0.6804E+06
   2774      1     30     94      0.6714E-01      0.6804E+06
   2775      1     30     95      0.6598E-01      0.6804E+06
   2776      1     30     96      0.6482E-01      0.6804E+06
   2777      1     30     97      0.6374E-01      0.6804E+06
   2778      1     30     98      0.6330E-01      0.6804E+06
   2779      1     30     99      0.6322E-01      0.6804E+06
   2780      1     30    100      0.6326E-01      0.6804E+06
   2781      1     31      1      0.5747          0.6804E+06
   2782      1     31      2      0.5586          0.6804E+06
   2783      1     31      3      0.5430          0.6804E+06
   2784      1     31      4      0.5236          0.6804E+06
   2785      1     31      5      0.5029          0.6804E+06
   2786      1     31      6      0.4835          0.6804E+06
   2787      1     31      7      0.4593          0.6804E+06
   2788      1     31      8      0.4317          0.6804E+06
   2789      1     31      9      0.4053          0.6804E+06
   2790      1     31     10      0.3730          0.6804E+06
   2791      1     31     11      0.3432          0.6804E+06
   2792      1     31     12      0.3081          0.6804E+06
   2793      1     31     13      0.2735          0.6804E+06
   2794      1     31     14      0.2447          0.6804E+06
   2795      1     31     15      0.2117          0.6804E+06
   2796      1     31     16      0.1840          0.6804E+06
   2797      1     31     17      0.1552          0.6804E+06
   2798      1     31     18      0.1327          0.6804E+06
   2799      1     31     19      0.1212          0.6804E+06
   2800      1     31     20      0.1142          0.6804E+06
   2801      1     31     21      0.1107          0.6804E+06
   2802      1     31     22      0.1090          0.6804E+06
   2803      1     31     23      0.1072          0.6804E+06
   2804      1     31     24      0.1047          0.6804E+06
   2805      1     31     25      0.1002          0.6804E+06
   2806      1     31     26      0.9431E-01      0.6804E+06
   2807      1     31     27      0.8889E-01      0.6804E+06
   2808      1     31     28      0.8146E-01      0.6804E+06
   2809      1     31     29      0.7090E-01      0.6804E+06
   2810      1     31     30      0.5776E-01      0.6804E+06
   2811      1     31     31      0.3528E-01      0.6804E+06
   2812      1     31     32      0.6134E-02      0.6804E+06
   2813      1     31     33     -0.9723E-01      0.6804E+06
   2814      1     31     60     -0.1393          0.6804E+06
   2815      1     31     61     -0.1466          0.6804E+06
   2816      1     31     62     -0.1492          0.6804E+06
   2817      1     31     63     -0.1516          0.6804E+06
   2818      1     31     64     -0.1403          0.6804E+06
   2819      1     31     65     -0.1504          0.6804E+06
   2820      1     31     66     -0.1346          0.6804E+06
   2821      1     31     67     -0.9755E-01      0.6804E+06
   2822      1     31     68     -0.9511E-01      0.6804E+06
   2823      1     31     69     -0.8620E-01      0.6804E+06
   2824      1     31     70     -0.6211E-01      0.6804E+06
   2825      1     31     71     -0.5246E-01      0.6804E+06
   2826      1     31     72       0.000          0.6804E+06
   2827      1     31     73       0.000          0.6804E+06
   2828      1     31     74       0.000          0.6804E+06
   2829      1     31     75       0.000          0.6804E+06
   2830      1     31     76       0.000          0.6804E+06
   2831      1     31     77       0.000          0.6804E+06
   2832      1     31     78       0.000          0.6804E+06
   2833      1     31     79       0.000          0.6804E+06
   2834      1     31     80       0.000          0.6804E+06
   2835      1     31     81       0.000          0.6804E+06
   2836      1     31     82      0.1615E-01      0.6804E+06
   2837      1     31     83      0.2860E-01      0.6804E+06
   2838      1     31     84      0.4041E-01      0.6804E+06
   2839      1     31     85      0.4886E-01      0.6804E+06
   2840      1     31     86      0.5607E-01      0.6804E+06
   2841      1     31     87      0.6131E-01      0.6804E+06
   2842      1     31     88      0.6460E-01      0.6804E+06
   2843      1     31     89      0.6714E-01      0.6804E+06
   2844      1     31     90      0.6860E-01      0.6804E+06
   2845      1     31     91      0.6926E-01      0.6804E+06
   2846      1     31     92      0.6919E-01      0.6804E+06
   2847      1     31     93      0.6858E-01      0.6804E+06
   2848      1     31     94      0.6752E-01      0.6804E+06
   2849      1     31     95      0.6632E-01      0.6804E+06
   2850      1     31     96      0.6513E-01      0.6804E+06
   2851      1     31     97      0.6410E-01      0.6804E+06
   2852      1     31     98      0.6385E-01      0.6804E+06
   2853      1     31     99      0.6373E-01      0.6804E+06
   2854      1     31    100      0.6355E-01      0.6804E+06
   2855      1     32      1      0.5779          0.6804E+06
   2856      1     32      2      0.5603          0.6804E+06
   2857      1     32      3      0.5432          0.6804E+06
   2858      1     32      4      0.5223          0.6804E+06
   2859      1     32      5      0.4998          0.6804E+06
   2860      1     32      6      0.4791          0.6804E+06
   2861      1     32      7      0.4540          0.6804E+06
   2862      1     32      8      0.4267          0.6804E+06
   2863      1     32      9      0.4011          0.6804E+06
   2864      1     32     10      0.3698          0.6804E+06
   2865      1     32     11      0.3407          0.6804E+06
   2866      1     32     12      0.3063          0.6804E+06
   2867      1     32     13      0.2716          0.6804E+06
   2868      1     32     14      0.2416          0.6804E+06
   2869      1     32     15      0.2072          0.6804E+06
   2870      1     32     16      0.1779          0.6804E+06
   2871      1     32     17      0.1474          0.6804E+06
   2872      1     32     18      0.1244          0.6804E+06
   2873      1     32     19      0.1160          0.6804E+06
   2874      1     32     20      0.1127          0.6804E+06
   2875      1     32     21      0.1123          0.6804E+06
   2876      1     32     22      0.1126          0.6804E+06
   2877      1     32     23      0.1128          0.6804E+06
   2878      1     32     24      0.1111          0.6804E+06
   2879      1     32     25      0.1078          0.6804E+06
   2880      1     32     26      0.1035          0.6804E+06
   2881      1     32     27      0.9883E-01      0.6804E+06
   2882      1     32     28      0.9183E-01      0.6804E+06
   2883      1     32     29      0.8132E-01      0.6804E+06
   2884      1     32     30      0.6722E-01      0.6804E+06
   2885      1     32     31      0.4008E-01      0.6804E+06
   2886      1     32     32      0.5005E-02      0.6804E+06
   2887      1     32     59     -0.1228          0.6804E+06
   2888      1     32     60     -0.1187          0.6804E+06
   2889      1     32     61     -0.1189          0.6804E+06
   2890      1     32     62     -0.1090          0.6804E+06
   2891      1     32     63     -0.1122          0.6804E+06
   2892      1     32     64     -0.1184          0.6804E+06
   2893      1     32     65     -0.1213          0.6804E+06
   2894      1     32     66     -0.1004          0.6804E+06
   2895      1     32     67     -0.8122E-01      0.6804E+06
   2896      1     32     68     -0.6775E-01      0.6804E+06
   2897      1     32     69     -0.5838E-01      0.6804E+06
   2898      1     32     70       0.000          0.6804E+06
   2899      1     32     71       0.000          0.6804E+06
   2900      1     32     72       0.000          0.6804E+06
   2901      1     32     73       0.000          0.6804E+06
   2902      1     32     74       0.000          0.6804E+06
   2903      1     32     75       0.000          0.6804E+06
   2904      1     32     76       0.000          0.6804E+06
   2905      1     32     77       0.000          0.6804E+06
   2906      1     32     78       0.000          0.6804E+06
   2907      1     32     79       0.000          0.6804E+06
   2908      1     32     80       0.000          0.6804E+06
   2909      1     32     81       0.000          0.6804E+06
   2910      1     32     82      0.1953E-01      0.6804E+06
   2911      1     32     83      0.3269E-01      0.6804E+06
   2912      1     32     84      0.4489E-01      0.6804E+06
   2913      1     32     85      0.5309E-01      0.6804E+06
   2914      1     32     86      0.5995E-01      0.6804E+06
   2915      1     32     87      0.6416E-01      0.6804E+06
   2916      1     32     88      0.6654E-01      0.6804E+06
   2917      1     32     89      0.6828E-01      0.6804E+06
   2918      1     32     90      0.6913E-01      0.6804E+06
   2919      1     32     91      0.6949E-01      0.6804E+06
   2920      1     32     92      0.6939E-01      0.6804E+06
   2921      1     32     93      0.6886E-01      0.6804E+06
   2922      1     32     94      0.6782E-01      0.6804E+06
   2923      1     32     95      0.6661E-01      0.6804E+06
   2924      1     32     96      0.6550E-01      0.6804E+06
   2925      1     32     97      0.6456E-01      0.6804E+06
   2926      1     32     98      0.6433E-01      0.6804E+06
   2927      1     32     99      0.6422E-01      0.6804E+06
   2928      1     32    100      0.6391E-01      0.6804E+06
   2929      1     33      1      0.5810          0.6804E+06
   2930      1     33      2      0.5620          0.6804E+06
   2931      1     33      3      0.5437          0.6804E+06
   2932      1     33      4      0.5213          0.6804E+06
   2933      1     33      5      0.4973          0.6804E+06
   2934      1     33      6      0.4755          0.6804E+06
   2935      1     33      7      0.4501          0.6804E+06
   2936      1     33      8      0.4234          0.6804E+06
   2937      1     33      9      0.3986          0.6804E+06
   2938      1     33     10      0.3684          0.6804E+06
   2939      1     33     11      0.3403          0.6804E+06
   2940      1     33     12      0.3068          0.6804E+06
   2941      1     33     13      0.2724          0.6804E+06
   2942      1     33     14      0.2419          0.6804E+06
   2943      1     33     15      0.2067          0.6804E+06
   2944      1     33     16      0.1764          0.6804E+06
   2945      1     33     17      0.1449          0.6804E+06
   2946      1     33     18      0.1216          0.6804E+06
   2947      1     33     19      0.1147          0.6804E+06
   2948      1     33     20      0.1135          0.6804E+06
   2949      1     33     21      0.1152          0.6804E+06
   2950      1     33     22      0.1171          0.6804E+06
   2951      1     33     23      0.1176          0.6804E+06
   2952      1     33     24      0.1164          0.6804E+06
   2953      1     33     25      0.1139          0.6804E+06
   2954      1     33     26      0.1104          0.6804E+06
   2955      1     33     27      0.1059          0.6804E+06
   2956      1     33     28      0.9817E-01      0.6804E+06
   2957      1     33     29      0.8677E-01      0.6804E+06
   2958      1     33     30      0.7194E-01      0.6804E+06
   2959      1     33     31      0.4361E-01      0.6804E+06
   2960      1     33     32      0.9645E-02      0.6804E+06
   2961      1     33     59     -0.1126          0.6804E+06
   2962      1     33     60     -0.1104          0.6804E+06
   2963      1     33     61     -0.1023          0.6804E+06
   2964      1     33     62     -0.8346E-01      0.6804E+06
   2965      1     33     63     -0.8191E-01      0.6804E+06
   2966      1     33     64     -0.8904E-01      0.6804E+06
   2967      1     33     65     -0.9325E-01      0.6804E+06
   2968      1     33     66     -0.8452E-01      0.6804E+06
   2969      1     33     67     -0.6535E-01      0.6804E+06
   2970      1     33     68       0.000          0.6804E+06
   2971      1     33     69       0.000          0.6804E+06
   2972      1     33     70       0.000          0.6804E+06
   2973      1     33     71       0.000          0.6804E+06
   2974      1     33     72       0.000          0.6804E+06
   2975      1     33     73       0.000          0.6804E+06
   2976      1     33     74       0.000          0.6804E+06
   2977      1     33     75       0.000          0.6804E+06
   2978      1     33     76       0.000          0.6804E+06
   2979      1     33     77       0.000          0.6804E+06
   2980      1     33     78       0.000          0.6804E+06
   2981      1     33     79       0.000          0.6804E+06
   2982      1     33     80       0.000          0.6804E+06
   2983      1     33     81      0.5161E-02      0.6804E+06
   2984      1     33     82      0.2407E-01      0.6804E+06
   2985      1     33     83      0.3661E-01      0.6804E+06
   2986      1     33     84      0.4812E-01      0.6804E+06
   2987      1     33     85      0.5586E-01      0.6804E+06
   2988      1     33     86      0.6210E-01      0.6804E+06
   2989      1     33     87      0.6533E-01      0.6804E+06
   2990      1     33     88      0.6699E-01      0.6804E+06
   2991      1     33     89      0.6828E-01      0.6804E+06
   2992      1     33     90      0.6901E-01      0.6804E+06
   2993      1     33     91      0.6930E-01      0.6804E+06
   2994      1     33     92      0.6924E-01      0.6804E+06
   2995      1     33     93      0.6885E-01      0.6804E+06
   2996      1     33     94      0.6800E-01      0.6804E+06
   2997      1     33     95      0.6681E-01      0.6804E+06
   2998      1     33     96      0.6583E-01      0.6804E+06
   2999      1     33     97      0.6498E-01      0.6804E+06
   3000      1     33     98      0.6456E-01      0.6804E+06
   3001      1     33     99      0.6449E-01      0.6804E+06
   3002      1     33    100      0.6419E-01      0.6804E+06
   3003      1     34      1      0.5850          0.6804E+06
   3004      1     34      2      0.5644          0.6804E+06
   3005      1     34      3      0.5447          0.6804E+06
   3006      1     34      4      0.5207          0.6804E+06
   3007      1     34      5      0.4952          0.6804E+06
   3008      1     34      6      0.4723          0.6804E+06
   3009      1     34      7      0.4469          0.6804E+06
   3010      1     34      8      0.4209          0.6804E+06
   3011      1     34      9      0.3972          0.6804E+06
   3012      1     34     10      0.3685          0.6804E+06
   3013      1     34     11      0.3417          0.6804E+06
   3014      1     34     12      0.3096          0.6804E+06
   3015      1     34     13      0.2758          0.6804E+06
   3016      1     34     14      0.2450          0.6804E+06
   3017      1     34     15      0.2093          0.6804E+06
   3018      1     34     16      0.1789          0.6804E+06
   3019      1     34     17      0.1476          0.6804E+06
   3020      1     34     18      0.1252          0.6804E+06
   3021      1     34     19      0.1181          0.6804E+06
   3022      1     34     20      0.1171          0.6804E+06
   3023      1     34     21      0.1198          0.6804E+06
   3024      1     34     22      0.1228          0.6804E+06
   3025      1     34     23      0.1239          0.6804E+06
   3026      1     34     24      0.1226          0.6804E+06
   3027      1     34     25      0.1193          0.6804E+06
   3028      1     34     26      0.1146          0.6804E+06
   3029      1     34     27      0.1096          0.6804E+06
   3030      1     34     28      0.1010          0.6804E+06
   3031      1     34     29      0.8853E-01      0.6804E+06
   3032      1     34     30      0.7289E-01      0.6804E+06
   3033      1     34     31      0.4527E-01      0.6804E+06
   3034      1     34     32      0.1356E-01      0.6804E+06
   3035      1     34     58     -0.9494E-01      0.6804E+06
   3036      1     34     59     -0.9613E-01      0.6804E+06
   3037      1     34     60     -0.8755E-01      0.6804E+06
   3038      1     34     61     -0.7797E-01      0.6804E+06
   3039      1     34     62     -0.6027E-01      0.6804E+06
   3040      1     34     63     -0.5935E-01      0.6804E+06
   3041      1     34     64     -0.5738E-01      0.6804E+06
   3042      1     34     65     -0.5644E-01      0.6804E+06
   3043      1     34     66       0.000          0.6804E+06
   3044      1     34     67       0.000          0.6804E+06
   3045      1     34     68       0.000          0.6804E+06
   3046      1     34     69       0.000          0.6804E+06
   3047      1     34     70       0.000          0.6804E+06
   3048      1     34     71       0.000          0.6804E+06
   3049      1     34     72       0.000          0.6804E+06
   3050      1     34     73       0.000          0.6804E+06
   3051      1     34     74       0.000          0.6804E+06
   3052      1     34     75       0.000          0.6804E+06
   3053      1     34     76       0.000          0.6804E+06
   3054      1     34     77       0.000          0.6804E+06
   3055      1     34     78       0.000          0.6804E+06
   3056      1     34     79       0.000          0.6804E+06
   3057      1     34     80       0.000          0.6804E+06
   3058      1     34     81      0.1513E-01      0.6804E+06
   3059      1     34     82      0.2989E-01      0.6804E+06
   3060      1     34     83      0.4100E-01      0.6804E+06
   3061      1     34     84      0.5127E-01      0.6804E+06
   3062      1     34     85      0.5804E-01      0.6804E+06
   3063      1     34     86      0.6300E-01      0.6804E+06
   3064      1     34     87      0.6518E-01      0.6804E+06
   3065      1     34     88      0.6624E-01      0.6804E+06
   3066      1     34     89      0.6742E-01      0.6804E+06
   3067      1     34     90      0.6844E-01      0.6804E+06
   3068      1     34     91      0.6885E-01      0.6804E+06
   3069      1     34     92      0.6879E-01      0.6804E+06
   3070      1     34     93      0.6841E-01      0.6804E+06
   3071      1     34     94      0.6779E-01      0.6804E+06
   3072      1     34     95      0.6675E-01      0.6804E+06
   3073      1     34     96      0.6586E-01      0.6804E+06
   3074      1     34     97      0.6507E-01      0.6804E+06
   3075      1     34     98      0.6465E-01      0.6804E+06
   3076      1     34     99      0.6448E-01      0.6804E+06
   3077      1     34    100      0.6432E-01      0.6804E+06
   3078      1     35      1      0.5898          0.6804E+06
   3079      1     35      2      0.5675          0.6804E+06
   3080      1     35      3      0.5464          0.6804E+06
   3081      1     35      4      0.5210          0.6804E+06
   3082      1     35      5      0.4946          0.6804E+06
   3083      1     35      6      0.4713          0.6804E+06
   3084      1     35      7      0.4457          0.6804E+06
   3085      1     35      8      0.4202          0.6804E+06
   3086      1     35      9      0.3974          0.6804E+06
   3087      1     35     10      0.3702          0.6804E+06
   3088      1     35     11      0.3452          0.6804E+06
   3089      1     35     12      0.3147          0.6804E+06
   3090      1     35     13      0.2817          0.6804E+06
   3091      1     35     14      0.2509          0.6804E+06
   3092      1     35     15      0.2151          0.6804E+06
   3093      1     35     16      0.1847          0.6804E+06
   3094      1     35     17      0.1539          0.6804E+06
   3095      1     35     18      0.1323          0.6804E+06
   3096      1     35     19      0.1239          0.6804E+06
   3097      1     35     20      0.1219          0.6804E+06
   3098      1     35     21      0.1245          0.6804E+06
   3099      1     35     22      0.1281          0.6804E+06
   3100      1     35     23      0.1294          0.6804E+06
   3101      1     35     24      0.1270          0.6804E+06
   3102      1     35     25      0.1216          0.6804E+06
   3103      1     35     26      0.1152          0.6804E+06
   3104      1     35     27      0.1093          0.6804E+06
   3105      1     35     28      0.9887E-01      0.6804E+06
   3106      1     35     29      0.8436E-01      0.6804E+06
   3107      1     35     30      0.6686E-01      0.6804E+06
   3108      1     35     31      0.3778E-01      0.6804E+06
   3109      1     35     58     -0.7246E-01      0.6804E+06
   3110      1     35     59     -0.7209E-01      0.6804E+06
   3111      1     35     60     -0.6612E-01      0.6804E+06
   3112      1     35     61     -0.6193E-01      0.6804E+06
   3113      1     35     62     -0.5152E-01      0.6804E+06
   3114      1     35     63     -0.5240E-01      0.6804E+06
   3115      1     35     64       0.000          0.6804E+06
   3116      1     35     65       0.000          0.6804E+06
   3117      1     35     66       0.000          0.6804E+06
   3118      1     35     67       0.000          0.6804E+06
   3119      1     35     68       0.000          0.6804E+06
   3120      1     35     69       0.000          0.6804E+06
   3121      1     35     70       0.000          0.6804E+06
   3122      1     35     71       0.000          0.6804E+06
   3123      1     35     72       0.000          0.6804E+06
   3124      1     35     73       0.000          0.6804E+06
   3125      1     35     74       0.000          0.6804E+06
   3126      1     35     75       0.000          0.6804E+06
   3127      1     35     76       0.000          0.6804E+06
   3128      1     35     77       0.000          0.6804E+06
   3129      1     35     78       0.000          0.6804E+06
   3130      1     35     79       0.000          0.6804E+06
   3131      1     35     80      0.2748E-02      0.6804E+06
   3132      1     35     81      0.2048E-01      0.6804E+06
   3133      1     35     82      0.3463E-01      0.6804E+06
   3134      1     35     83      0.4484E-01      0.6804E+06
   3135      1     35     84      0.5406E-01      0.6804E+06
   3136      1     35     85      0.5989E-01      0.6804E+06
   3137      1     35     86      0.6347E-01      0.6804E+06
   3138      1     35     87      0.6468E-01      0.6804E+06
   3139      1     35     88      0.6529E-01      0.6804E+06
   3140      1     35     89      0.6646E-01      0.6804E+06
   3141      1     35     90      0.6766E-01      0.6804E+06
   3142      1     35     91      0.6808E-01      0.6804E+06
   3143      1     35     92      0.6808E-01      0.6804E+06
   3144      1     35     93      0.6782E-01      0.6804E+06
   3145      1     35     94      0.6721E-01      0.6804E+06
   3146      1     35     95      0.6632E-01      0.6804E+06
   3147      1     35     96      0.6559E-01      0.6804E+06
   3148      1     35     97      0.6492E-01      0.6804E+06
   3149      1     35     98      0.6446E-01      0.6804E+06
   3150      1     35     99      0.6425E-01      0.6804E+06
   3151      1     35    100      0.6413E-01      0.6804E+06
   3152      1     36      1      0.5945          0.6804E+06
   3153      1     36      2      0.5707          0.6804E+06
   3154      1     36      3      0.5485          0.6804E+06
   3155      1     36      4      0.5221          0.6804E+06
   3156      1     36      5      0.4951          0.6804E+06
   3157      1     36      6      0.4717          0.6804E+06
   3158      1     36      7      0.4458          0.6804E+06
   3159      1     36      8      0.4205          0.6804E+06
   3160      1     36      9      0.3983          0.6804E+06
   3161      1     36     10      0.3725          0.6804E+06
   3162      1     36     11      0.3492          0.6804E+06
   3163      1     36     12      0.3208          0.6804E+06
   3164      1     36     13      0.2890          0.6804E+06
   3165      1     36     14      0.2581          0.6804E+06
   3166      1     36     15      0.2218          0.6804E+06
   3167      1     36     16      0.1908          0.6804E+06
   3168      1     36     17      0.1589          0.6804E+06
   3169      1     36     18      0.1364          0.6804E+06
   3170      1     36     19      0.1278          0.6804E+06
   3171      1     36     20      0.1253          0.6804E+06
   3172      1     36     21      0.1273          0.6804E+06
   3173      1     36     22      0.1305          0.6804E+06
   3174      1     36     23      0.1314          0.6804E+06
   3175      1     36     24      0.1276          0.6804E+06
   3176      1     36     25      0.1201          0.6804E+06
   3177      1     36     26      0.1124          0.6804E+06
   3178      1     36     27      0.1054          0.6804E+06
   3179      1     36     28      0.9293E-01      0.6804E+06
   3180      1     36     29      0.7565E-01      0.6804E+06
   3181      1     36     30      0.5505E-01      0.6804E+06
   3182      1     36     31      0.2168E-01      0.6804E+06
   3183      1     36     58     -0.5577E-01      0.6804E+06
   3184      1     36     59     -0.5434E-01      0.6804E+06
   3185      1     36     60     -0.5409E-01      0.6804E+06
   3186      1     36     61     -0.5361E-01      0.6804E+06
   3187      1     36     62       0.000          0.6804E+06
   3188      1     36     63       0.000          0.6804E+06
   3189      1     36     64       0.000          0.6804E+06
   3190      1     36     65       0.000          0.6804E+06
   3191      1     36     66       0.000          0.6804E+06
   3192      1     36     67       0.000          0.6804E+06
   3193      1     36     68       0.000          0.6804E+06
   3194      1     36     69       0.000          0.6804E+06
   3195      1     36     70       0.000          0.6804E+06
   3196      1     36     71       0.000          0.6804E+06
   3197      1     36     72       0.000          0.6804E+06
   3198      1     36     73       0.000          0.6804E+06
   3199      1     36     74       0.000          0.6804E+06
   3200      1     36     75       0.000          0.6804E+06
   3201      1     36     76       0.000          0.6804E+06
   3202      1     36     77       0.000          0.6804E+06
   3203      1     36     78       0.000          0.6804E+06
   3204      1     36     79       0.000          0.6804E+06
   3205      1     36     80      0.1034E-01      0.6804E+06
   3206      1     36     81      0.2546E-01      0.6804E+06
   3207      1     36     82      0.3828E-01      0.6804E+06
   3208      1     36     83      0.4767E-01      0.6804E+06
   3209      1     36     84      0.5630E-01      0.6804E+06
   3210      1     36     85      0.6163E-01      0.6804E+06
   3211      1     36     86      0.6422E-01      0.6804E+06
   3212      1     36     87      0.6472E-01      0.6804E+06
   3213      1     36     88      0.6492E-01      0.6804E+06
   3214      1     36     89      0.6586E-01      0.6804E+06
   3215      1     36     90      0.6691E-01      0.6804E+06
   3216      1     36     91      0.6726E-01      0.6804E+06
   3217      1     36     92      0.6731E-01      0.6804E+06
   3218      1     36     93      0.6720E-01      0.6804E+06
   3219      1     36     94      0.6656E-01      0.6804E+06
   3220      1     36     95      0.6579E-01      0.6804E+06
   3221      1     36     96      0.6518E-01      0.6804E+06
   3222      1     36     97      0.6460E-01      0.6804E+06
   3223      1     36     98      0.6422E-01      0.6804E+06
   3224      1     36     99      0.6396E-01      0.6804E+06
   3225      1     36    100      0.6380E-01      0.6804E+06
   3226      1     37      1      0.6002          0.6804E+06
   3227      1     37      2      0.5746          0.6804E+06
   3228      1     37      3      0.5510          0.6804E+06
   3229      1     37      4      0.5234          0.6804E+06
   3230      1     37      5      0.4958          0.6804E+06
   3231      1     37      6      0.4722          0.6804E+06
   3232      1     37      7      0.4461          0.6804E+06
   3233      1     37      8      0.4209          0.6804E+06
   3234      1     37      9      0.3993          0.6804E+06
   3235      1     37     10      0.3749          0.6804E+06
   3236      1     37     11      0.3536          0.6804E+06
   3237      1     37     12      0.3282          0.6804E+06
   3238      1     37     13      0.2989          0.6804E+06
   3239      1     37     14      0.2670          0.6804E+06
   3240      1     37     15      0.2302          0.6804E+06
   3241      1     37     16      0.1990          0.6804E+06
   3242      1     37     17      0.1670          0.6804E+06
   3243      1     37     18      0.1434          0.6804E+06
   3244      1     37     19      0.1327          0.6804E+06
   3245      1     37     20      0.1274          0.6804E+06
   3246      1     37     21      0.1264          0.6804E+06
   3247      1     37     22      0.1275          0.6804E+06
   3248      1     37     23      0.1263          0.6804E+06
   3249      1     37     24      0.1215          0.6804E+06
   3250      1     37     25      0.1131          0.6804E+06
   3251      1     37     26      0.1041          0.6804E+06
   3252      1     37     27      0.9534E-01      0.6804E+06
   3253      1     37     28      0.8062E-01      0.6804E+06
   3254      1     37     29      0.5971E-01      0.6804E+06
   3255      1     37     30      0.3618E-01      0.6804E+06
   3256      1     37     58     -0.5410E-01      0.6804E+06
   3257      1     37     59     -0.5313E-01      0.6804E+06
   3258      1     37     60     -0.5294E-01      0.6804E+06
   3259      1     37     61     -0.5339E-01      0.6804E+06
   3260      1     37     62       0.000          0.6804E+06
   3261      1     37     63       0.000          0.6804E+06
   3262      1     37     64       0.000          0.6804E+06
   3263      1     37     65       0.000          0.6804E+06
   3264      1     37     66       0.000          0.6804E+06
   3265      1     37     67       0.000          0.6804E+06
   3266      1     37     68       0.000          0.6804E+06
   3267      1     37     69       0.000          0.6804E+06
   3268      1     37     70       0.000          0.6804E+06
   3269      1     37     71       0.000          0.6804E+06
   3270      1     37     72       0.000          0.6804E+06
   3271      1     37     73       0.000          0.6804E+06
   3272      1     37     74       0.000          0.6804E+06
   3273      1     37     75       0.000          0.6804E+06
   3274      1     37     76       0.000          0.6804E+06
   3275      1     37     77       0.000          0.6804E+06
   3276      1     37     78       0.000          0.6804E+06
   3277      1     37     79      0.3399E-03      0.6804E+06
   3278      1     37     80      0.1354E-01      0.6804E+06
   3279      1     37     81      0.2884E-01      0.6804E+06
   3280      1     37     82      0.4122E-01      0.6804E+06
   3281      1     37     83      0.5037E-01      0.6804E+06
   3282      1     37     84      0.5852E-01      0.6804E+06
   3283      1     37     85      0.6299E-01      0.6804E+06
   3284      1     37     86      0.6497E-01      0.6804E+06
   3285      1     37     87      0.6523E-01      0.6804E+06
   3286      1     37     88      0.6514E-01      0.6804E+06
   3287      1     37     89      0.6546E-01      0.6804E+06
   3288      1     37     90      0.6608E-01      0.6804E+06
   3289      1     37     91      0.6635E-01      0.6804E+06
   3290      1     37     92      0.6645E-01      0.6804E+06
   3291      1     37     93      0.6641E-01      0.6804E+06
   3292      1     37     94      0.6582E-01      0.6804E+06
   3293      1     37     95      0.6519E-01      0.6804E+06
   3294      1     37     96      0.6463E-01      0.6804E+06
   3295      1     37     97      0.6406E-01      0.6804E+06
   3296      1     37     98      0.6387E-01      0.6804E+06
   3297      1     37     99      0.6359E-01      0.6804E+06
   3298      1     37    100      0.6340E-01      0.6804E+06
   3299      1     38      1      0.6058          0.6804E+06
   3300      1     38      2      0.5783          0.6804E+06
   3301      1     38      3      0.5533          0.6804E+06
   3302      1     38      4      0.5242          0.6804E+06
   3303      1     38      5      0.4957          0.6804E+06
   3304      1     38      6      0.4716          0.6804E+06
   3305      1     38      7      0.4454          0.6804E+06
   3306      1     38      8      0.4204          0.6804E+06
   3307      1     38      9      0.3995          0.6804E+06
   3308      1     38     10      0.3761          0.6804E+06
   3309      1     38     11      0.3561          0.6804E+06
   3310      1     38     12      0.3322          0.6804E+06
   3311      1     38     13      0.3046          0.6804E+06
   3312      1     38     14      0.2735          0.6804E+06
   3313      1     38     15      0.2376          0.6804E+06
   3314      1     38     16      0.2076          0.6804E+06
   3315      1     38     17      0.1767          0.6804E+06
   3316      1     38     18      0.1523          0.6804E+06
   3317      1     38     19      0.1376          0.6804E+06
   3318      1     38     20      0.1266          0.6804E+06
   3319      1     38     21      0.1211          0.6804E+06
   3320      1     38     22      0.1204          0.6804E+06
   3321      1     38     23      0.1171          0.6804E+06
   3322      1     38     24      0.1110          0.6804E+06
   3323      1     38     25      0.1016          0.6804E+06
   3324      1     38     26      0.9116E-01      0.6804E+06
   3325      1     38     27      0.8044E-01      0.6804E+06
   3326      1     38     28      0.6291E-01      0.6804E+06
   3327      1     38     29      0.3824E-01      0.6804E+06
   3328      1     38     58     -0.5216E-01      0.6804E+06
   3329      1     38     59     -0.5327E-01      0.6804E+06
   3330      1     38     60     -0.5256E-01      0.6804E+06
   3331      1     38     61     -0.5299E-01      0.6804E+06
   3332      1     38     62       0.000          0.6804E+06
   3333      1     38     63       0.000          0.6804E+06
   3334      1     38     64       0.000          0.6804E+06
   3335      1     38     65       0.000          0.6804E+06
   3336      1     38     66       0.000          0.6804E+06
   3337      1     38     67       0.000          0.6804E+06
   3338      1     38     68       0.000          0.6804E+06
   3339      1     38     69       0.000          0.6804E+06
   3340      1     38     70       0.000          0.6804E+06
   3341      1     38     71       0.000          0.6804E+06
   3342      1     38     72       0.000          0.6804E+06
   3343      1     38     73       0.000          0.6804E+06
   3344      1     38     74       0.000          0.6804E+06
   3345      1     38     75       0.000          0.6804E+06
   3346      1     38     76       0.000          0.6804E+06
   3347      1     38     77       0.000          0.6804E+06
   3348      1     38     78       0.000          0.6804E+06
   3349      1     38     79      0.2886E-02      0.6804E+06
   3350      1     38     80      0.1388E-01      0.6804E+06
   3351      1     38     81      0.2917E-01      0.6804E+06
   3352      1     38     82      0.4258E-01      0.6804E+06
   3353      1     38     83      0.5246E-01      0.6804E+06
   3354      1     38     84      0.6075E-01      0.6804E+06
   3355      1     38     85      0.6428E-01      0.6804E+06
   3356      1     38     86      0.6550E-01      0.6804E+06
   3357      1     38     87      0.6531E-01      0.6804E+06
   3358      1     38     88      0.6494E-01      0.6804E+06
   3359      1     38     89      0.6507E-01      0.6804E+06
   3360      1     38     90      0.6544E-01      0.6804E+06
   3361      1     38     91      0.6572E-01      0.6804E+06
   3362      1     38     92      0.6587E-01      0.6804E+06
   3363      1     38     93      0.6578E-01      0.6804E+06
   3364      1     38     94      0.6534E-01      0.6804E+06
   3365      1     38     95      0.6474E-01      0.6804E+06
   3366      1     38     96      0.6417E-01      0.6804E+06
   3367      1     38     97      0.6358E-01      0.6804E+06
   3368      1     38     98      0.6338E-01      0.6804E+06
   3369      1     38     99      0.6326E-01      0.6804E+06
   3370      1     38    100      0.6322E-01      0.6804E+06
   3371      1     39      1      0.6106          0.6804E+06
   3372      1     39      2      0.5812          0.6804E+06
   3373      1     39      3      0.5546          0.6804E+06
   3374      1     39      4      0.5241          0.6804E+06
   3375      1     39      5      0.4944          0.6804E+06
   3376      1     39      6      0.4698          0.6804E+06
   3377      1     39      7      0.4435          0.6804E+06
   3378      1     39      8      0.4189          0.6804E+06
   3379      1     39      9      0.3984          0.6804E+06
   3380      1     39     10      0.3756          0.6804E+06
   3381      1     39     11      0.3558          0.6804E+06
   3382      1     39     12      0.3318          0.6804E+06
   3383      1     39     13      0.3043          0.6804E+06
   3384      1     39     14      0.2759          0.6804E+06
   3385      1     39     15      0.2425          0.6804E+06
   3386      1     39     16      0.2142          0.6804E+06
   3387      1     39     17      0.1847          0.6804E+06
   3388      1     39     18      0.1597          0.6804E+06
   3389      1     39     19      0.1401          0.6804E+06
   3390      1     39     20      0.1221          0.6804E+06
   3391      1     39     21      0.1107          0.6804E+06
   3392      1     39     22      0.1073          0.6804E+06
   3393      1     39     23      0.1032          0.6804E+06
   3394      1     39     24      0.9753E-01      0.6804E+06
   3395      1     39     25      0.8892E-01      0.6804E+06
   3396      1     39     26      0.7796E-01      0.6804E+06
   3397      1     39     27      0.6500E-01      0.6804E+06
   3398      1     39     28      0.4355E-01      0.6804E+06
   3399      1     39     29      0.1509E-01      0.6804E+06
   3400      1     39     58     -0.5574E-01      0.6804E+06
   3401      1     39     59     -0.5255E-01      0.6804E+06
   3402      1     39     60     -0.5170E-01      0.6804E+06
   3403      1     39     61     -0.5034E-01      0.6804E+06
   3404      1     39     62       0.000          0.6804E+06
   3405      1     39     63       0.000          0.6804E+06
   3406      1     39     64       0.000          0.6804E+06
   3407      1     39     65       0.000          0.6804E+06
   3408      1     39     66       0.000          0.6804E+06
   3409      1     39     67       0.000          0.6804E+06
   3410      1     39     68       0.000          0.6804E+06
   3411      1     39     69       0.000          0.6804E+06
   3412      1     39     70       0.000          0.6804E+06
   3413      1     39     71       0.000          0.6804E+06
   3414      1     39     72       0.000          0.6804E+06
   3415      1     39     73       0.000          0.6804E+06
   3416      1     39     74       0.000          0.6804E+06
   3417      1     39     75       0.000          0.6804E+06
   3418      1     39     76       0.000          0.6804E+06
   3419      1     39     77       0.000          0.6804E+06
   3420      1     39     78       0.000          0.6804E+06
   3421      1     39     79       0.000          0.6804E+06
   3422      1     39     80      0.1066E-01      0.6804E+06
   3423      1     39     81      0.2790E-01      0.6804E+06
   3424      1     39     82      0.4297E-01      0.6804E+06
   3425      1     39     83      0.5376E-01      0.6804E+06
   3426      1     39     84      0.6223E-01      0.6804E+06
   3427      1     39     85      0.6521E-01      0.6804E+06
   3428      1     39     86      0.6591E-01      0.6804E+06
   3429      1     39     87      0.6528E-01      0.6804E+06
   3430      1     39     88      0.6462E-01      0.6804E+06
   3431      1     39     89      0.6478E-01      0.6804E+06
   3432      1     39     90      0.6514E-01      0.6804E+06
   3433      1     39     91      0.6542E-01      0.6804E+06
   3434      1     39     92      0.6554E-01      0.6804E+06
   3435      1     39     93      0.6535E-01      0.6804E+06
   3436      1     39     94      0.6482E-01      0.6804E+06
   3437      1     39     95      0.6430E-01      0.6804E+06
   3438      1     39     96      0.6387E-01      0.6804E+06
   3439      1     39     97      0.6341E-01      0.6804E+06
   3440      1     39     98      0.6321E-01      0.6804E+06
   3441      1     39     99      0.6311E-01      0.6804E+06
   3442      1     39    100      0.6326E-01      0.6804E+06
   3443      1     40      1      0.6157          0.6804E+06
   3444      1     40      2      0.5839          0.6804E+06
   3445      1     40      3      0.5554          0.6804E+06
   3446      1     40      4      0.5228          0.6804E+06
   3447      1     40      5      0.4915          0.6804E+06
   3448      1     40      6      0.4663          0.6804E+06
   3449      1     40      7      0.4399          0.6804E+06
   3450      1     40      8      0.4156          0.6804E+06
   3451      1     40      9      0.3957          0.6804E+06
   3452      1     40     10      0.3736          0.6804E+06
   3453      1     40     11      0.3539          0.6804E+06
   3454      1     40     12      0.3300          0.6804E+06
   3455      1     40     13      0.3033          0.6804E+06
   3456      1     40     14      0.2770          0.6804E+06
   3457      1     40     15      0.2458          0.6804E+06
   3458      1     40     16      0.2190          0.6804E+06
   3459      1     40     17      0.1901          0.6804E+06
   3460      1     40     18      0.1639          0.6804E+06
   3461      1     40     19      0.1386          0.6804E+06
   3462      1     40     20      0.1114          0.6804E+06
   3463      1     40     21      0.9120E-01      0.6804E+06
   3464      1     40     22      0.8318E-01      0.6804E+06
   3465      1     40     23      0.8053E-01      0.6804E+06
   3466      1     40     24      0.7854E-01      0.6804E+06
   3467      1     40     25      0.7347E-01      0.6804E+06
   3468      1     40     26      0.6318E-01      0.6804E+06
   3469      1     40     27      0.4816E-01      0.6804E+06
   3470      1     40     28      0.2003E-01      0.6804E+06
   3471      1     40     58     -0.5780E-01      0.6804E+06
   3472      1     40     59     -0.5226E-01      0.6804E+06
   3473      1     40     60     -0.4942E-01      0.6804E+06
   3474      1     40     61       0.000          0.6804E+06
   3475      1     40     62       0.000          0.6804E+06
   3476      1     40     63       0.000          0.6804E+06
   3477      1     40     64       0.000          0.6804E+06
   3478      1     40     65       0.000          0.6804E+06
   3479      1     40     66       0.000          0.6804E+06
   3480      1     40     67       0.000          0.6804E+06
   3481      1     40     68       0.000          0.6804E+06
   3482      1     40     69       0.000          0.6804E+06
   3483      1     40     70       0.000          0.6804E+06
   3484      1     40     71       0.000          0.6804E+06
   3485      1     40     72       0.000          0.6804E+06
   3486      1     40     73       0.000          0.6804E+06
   3487      1     40     74       0.000          0.6804E+06
   3488      1     40     75       0.000          0.6804E+06
   3489      1     40     76       0.000          0.6804E+06
   3490      1     40     77       0.000          0.6804E+06
   3491      1     40     78       0.000          0.6804E+06
   3492      1     40     79       0.000          0.6804E+06
   3493      1     40     80      0.4358E-02      0.6804E+06
   3494      1     40     81      0.2614E-01      0.6804E+06
   3495      1     40     82      0.4355E-01      0.6804E+06
   3496      1     40     83      0.5502E-01      0.6804E+06
   3497      1     40     84      0.6320E-01      0.6804E+06
   3498      1     40     85      0.6600E-01      0.6804E+06
   3499      1     40     86      0.6648E-01      0.6804E+06
   3500      1     40     87      0.6553E-01      0.6804E+06
   3501      1     40     88      0.6460E-01      0.6804E+06
   3502      1     40     89      0.6468E-01      0.6804E+06
   3503      1     40     90      0.6496E-01      0.6804E+06
   3504      1     40     91      0.6516E-01      0.6804E+06
   3505      1     40     92      0.6512E-01      0.6804E+06
   3506      1     40     93      0.6470E-01      0.6804E+06
   3507      1     40     94      0.6424E-01      0.6804E+06
   3508      1     40     95      0.6388E-01      0.6804E+06
   3509      1     40     96      0.6362E-01      0.6804E+06
   3510      1     40     97      0.6335E-01      0.6804E+06
   3511      1     40     98      0.6319E-01      0.6804E+06
   3512      1     40     99      0.6333E-01      0.6804E+06
   3513      1     40    100      0.6359E-01      0.6804E+06
   3514      1     41      1      0.6200          0.6804E+06
   3515      1     41      2      0.5856          0.6804E+06
   3516      1     41      3      0.5551          0.6804E+06
   3517      1     41      4      0.5206          0.6804E+06
   3518      1     41      5      0.4879          0.6804E+06
   3519      1     41      6      0.4620          0.6804E+06
   3520      1     41      7      0.4355          0.6804E+06
   3521      1     41      8      0.4116          0.6804E+06
   3522      1     41      9      0.3922          0.6804E+06
   3523      1     41     10      0.3708          0.6804E+06
   3524      1     41     11      0.3518          0.6804E+06
   3525      1     41     12      0.3287          0.6804E+06
   3526      1     41     13      0.3028          0.6804E+06
   3527      1     41     14      0.2775          0.6804E+06
   3528      1     41     15      0.2472          0.6804E+06
   3529      1     41     16      0.2205          0.6804E+06
   3530      1     41     17      0.1905          0.6804E+06
   3531      1     41     18      0.1605          0.6804E+06
   3532      1     41     19      0.1316          0.6804E+06
   3533      1     41     20      0.9813E-01      0.6804E+06
   3534      1     41     21      0.6926E-01      0.6804E+06
   3535      1     41     22      0.5697E-01      0.6804E+06
   3536      1     41     23      0.5786E-01      0.6804E+06
   3537      1     41     24      0.6167E-01      0.6804E+06
   3538      1     41     25      0.6155E-01      0.6804E+06
   3539      1     41     26      0.5299E-01      0.6804E+06
   3540      1     41     27      0.3764E-01      0.6804E+06
   3541      1     41     28      0.4033E-02      0.6804E+06
   3542      1     41     58     -0.5797E-01      0.6804E+06
   3543      1     41     59     -0.5117E-01      0.6804E+06
   3544      1     41     60     -0.4610E-01      0.6804E+06
   3545      1     41     61       0.000          0.6804E+06
   3546      1     41     62       0.000          0.6804E+06
   3547      1     41     63       0.000          0.6804E+06
   3548      1     41     64       0.000          0.6804E+06
   3549      1     41     65       0.000          0.6804E+06
   3550      1     41     66       0.000          0.6804E+06
   3551      1     41     67       0.000          0.6804E+06
   3552      1     41     68       0.000          0.6804E+06
   3553      1     41     69       0.000          0.6804E+06
   3554      1     41     70       0.000          0.6804E+06
   3555      1     41     71       0.000          0.6804E+06
   3556      1     41     72       0.000          0.6804E+06
   3557      1     41     73       0.000          0.6804E+06
   3558      1     41     74       0.000          0.6804E+06
   3559      1     41     75       0.000          0.6804E+06
   3560      1     41     76       0.000          0.6804E+06
   3561      1     41     77       0.000          0.6804E+06
   3562      1     41     78       0.000          0.6804E+06
   3563      1     41     79       0.000          0.6804E+06
   3564      1     41     80      0.2738E-02      0.6804E+06
   3565      1     41     81      0.2637E-01      0.6804E+06
   3566      1     41     82      0.4534E-01      0.6804E+06
   3567      1     41     83      0.5728E-01      0.6804E+06
   3568      1     41     84      0.6478E-01      0.6804E+06
   3569      1     41     85      0.6705E-01      0.6804E+06
   3570      1     41     86      0.6728E-01      0.6804E+06
   3571      1     41     87      0.6635E-01      0.6804E+06
   3572      1     41     88      0.6540E-01      0.6804E+06
   3573      1     41     89      0.6501E-01      0.6804E+06
   3574      1     41     90      0.6488E-01      0.6804E+06
   3575      1     41     91      0.6482E-01      0.6804E+06
   3576      1     41     92      0.6455E-01      0.6804E+06
   3577      1     41     93      0.6397E-01      0.6804E+06
   3578      1     41     94      0.6378E-01      0.6804E+06
   3579      1     41     95      0.6361E-01      0.6804E+06
   3580      1     41     96      0.6342E-01      0.6804E+06
   3581      1     41     97      0.6326E-01      0.6804E+06
   3582      1     41     98      0.6311E-01      0.6804E+06
   3583      1     41     99      0.6343E-01      0.6804E+06
   3584      1     41    100      0.6384E-01      0.6804E+06
   3585      1     42      1      0.6243          0.6804E+06
   3586      1     42      2      0.5865          0.6804E+06
   3587      1     42      3      0.5534          0.6804E+06
   3588      1     42      4      0.5165          0.6804E+06
   3589      1     42      5      0.4823          0.6804E+06
   3590      1     42      6      0.4559          0.6804E+06
   3591      1     42      7      0.4292          0.6804E+06
   3592      1     42      8      0.4057          0.6804E+06
   3593      1     42      9      0.3871          0.6804E+06
   3594      1     42     10      0.3668          0.6804E+06
   3595      1     42     11      0.3489          0.6804E+06
   3596      1     42     12      0.3272          0.6804E+06
   3597      1     42     13      0.3023          0.6804E+06
   3598      1     42     14      0.2777          0.6804E+06
   3599      1     42     15      0.2479          0.6804E+06
   3600      1     42     16      0.2211          0.6804E+06
   3601      1     42     17      0.1897          0.6804E+06
   3602      1     42     18      0.1567          0.6804E+06
   3603      1     42     19      0.1257          0.6804E+06
   3604      1     42     20      0.8865E-01      0.6804E+06
   3605      1     42     21      0.5453E-01      0.6804E+06
   3606      1     42     22      0.3974E-01      0.6804E+06
   3607      1     42     23      0.4285E-01      0.6804E+06
   3608      1     42     24      0.5119E-01      0.6804E+06
   3609      1     42     25      0.5542E-01      0.6804E+06
   3610      1     42     26      0.4942E-01      0.6804E+06
   3611      1     42     27      0.3605E-01      0.6804E+06
   3612      1     42     28      0.5509E-02      0.6804E+06
   3613      1     42     57     -0.6526E-01      0.6804E+06
   3614      1     42     58     -0.5522E-01      0.6804E+06
   3615      1     42     59     -0.5115E-01      0.6804E+06
   3616      1     42     60     -0.4406E-01      0.6804E+06
   3617      1     42     61       0.000          0.6804E+06
   3618      1     42     62       0.000          0.6804E+06
   3619      1     42     63       0.000          0.6804E+06
   3620      1     42     64       0.000          0.6804E+06
   3621      1     42     65       0.000          0.6804E+06
   3622      1     42     66       0.000          0.6804E+06
   3623      1     42     67       0.000          0.6804E+06
   3624      1     42     68       0.000          0.6804E+06
   3625      1     42     69       0.000          0.6804E+06
   3626      1     42     70       0.000          0.6804E+06
   3627      1     42     71       0.000          0.6804E+06
   3628      1     42     72       0.000          0.6804E+06
   3629      1     42     73       0.000          0.6804E+06
   3630      1     42     74       0.000          0.6804E+06
   3631      1     42     75       0.000          0.6804E+06
   3632      1     42     76       0.000          0.6804E+06
   3633      1     42     77       0.000          0.6804E+06
   3634      1     42     78       0.000          0.6804E+06
   3635      1     42     79       0.000          0.6804E+06
   3636      1     42     80      0.6835E-02      0.6804E+06
   3637      1     42     81      0.2985E-01      0.6804E+06
   3638      1     42     82      0.4835E-01      0.6804E+06
   3639      1     42     83      0.5979E-01      0.6804E+06
   3640      1     42     84      0.6652E-01      0.6804E+06
   3641      1     42     85      0.6833E-01      0.6804E+06
   3642      1     42     86      0.6828E-01      0.6804E+06
   3643      1     42     87      0.6724E-01      0.6804E+06
   3644      1     42     88      0.6615E-01      0.6804E+06
   3645      1     42     89      0.6532E-01      0.6804E+06
   3646      1     42     90      0.6490E-01      0.6804E+06
   3647      1     42     91      0.6444E-01      0.6804E+06
   3648      1     42     92      0.6375E-01      0.6804E+06
   3649      1     42     93      0.6347E-01      0.6804E+06
   3650      1     42     94      0.6335E-01      0.6804E+06
   3651      1     42     95      0.6322E-01      0.6804E+06
   3652      1     42     96      0.6309E-01      0.6804E+06
   3653      1     42     97      0.6294E-01      0.6804E+06
   3654      1     42     98      0.6281E-01      0.6804E+06
   3655      1     42     99      0.6319E-01      0.6804E+06
   3656      1     42    100      0.6388E-01      0.6804E+06
   3657      1     43      1      0.6271          0.6804E+06
   3658      1     43      2      0.5860          0.6804E+06
   3659      1     43      3      0.5499          0.6804E+06
   3660      1     43      4      0.5102          0.6804E+06
   3661      1     43      5      0.4744          0.6804E+06
   3662      1     43      6      0.4474          0.6804E+06
   3663      1     43      7      0.4211          0.6804E+06
   3664      1     43      8      0.3985          0.6804E+06
   3665      1     43      9      0.3810          0.6804E+06
   3666      1     43     10      0.3620          0.6804E+06
   3667      1     43     11      0.3454          0.6804E+06
   3668      1     43     12      0.3250          0.6804E+06
   3669      1     43     13      0.3014          0.6804E+06
   3670      1     43     14      0.2777          0.6804E+06
   3671      1     43     15      0.2486          0.6804E+06
   3672      1     43     16      0.2218          0.6804E+06
   3673      1     43     17      0.1899          0.6804E+06
   3674      1     43     18      0.1560          0.6804E+06
   3675      1     43     19      0.1248          0.6804E+06
   3676      1     43     20      0.8877E-01      0.6804E+06
   3677      1     43     21      0.5680E-01      0.6804E+06
   3678      1     43     22      0.4287E-01      0.6804E+06
   3679      1     43     23      0.4420E-01      0.6804E+06
   3680      1     43     24      0.5142E-01      0.6804E+06
   3681      1     43     25      0.5615E-01      0.6804E+06
   3682      1     43     26      0.5316E-01      0.6804E+06
   3683      1     43     58     -0.5469E-01      0.6804E+06
   3684      1     43     59     -0.5139E-01      0.6804E+06
   3685      1     43     60       0.000          0.6804E+06
   3686      1     43     61       0.000          0.6804E+06
   3687      1     43     62       0.000          0.6804E+06
   3688      1     43     63       0.000          0.6804E+06
   3689      1     43     64       0.000          0.6804E+06
   3690      1     43     65       0.000          0.6804E+06
   3691      1     43     66       0.000          0.6804E+06
   3692      1     43     67       0.000          0.6804E+06
   3693      1     43     68       0.000          0.6804E+06
   3694      1     43     69       0.000          0.6804E+06
   3695      1     43     70       0.000          0.6804E+06
   3696      1     43     71       0.000          0.6804E+06
   3697      1     43     72       0.000          0.6804E+06
   3698      1     43     73       0.000          0.6804E+06
   3699      1     43     74       0.000          0.6804E+06
   3700      1     43     75       0.000          0.6804E+06
   3701      1     43     76       0.000          0.6804E+06
   3702      1     43     77       0.000          0.6804E+06
   3703      1     43     78       0.000          0.6804E+06
   3704      1     43     79       0.000          0.6804E+06
   3705      1     43     80      0.1676E-01      0.6804E+06
   3706      1     43     81      0.3708E-01      0.6804E+06
   3707      1     43     82      0.5298E-01      0.6804E+06
   3708      1     43     83      0.6277E-01      0.6804E+06
   3709      1     43     84      0.6843E-01      0.6804E+06
   3710      1     43     85      0.6982E-01      0.6804E+06
   3711      1     43     86      0.6933E-01      0.6804E+06
   3712      1     43     87      0.6783E-01      0.6804E+06
   3713      1     43     88      0.6638E-01      0.6804E+06
   3714      1     43     89      0.6507E-01      0.6804E+06
   3715      1     43     90      0.6442E-01      0.6804E+06
   3716      1     43     91      0.6399E-01      0.6804E+06
   3717      1     43     92      0.6350E-01      0.6804E+06
   3718      1     43     93      0.6326E-01      0.6804E+06
   3719      1     43     94      0.6309E-01      0.6804E+06
   3720      1     43     95      0.6287E-01      0.6804E+06
   3721      1     43     96      0.6266E-01      0.6804E+06
   3722      1     43     97      0.6267E-01      0.6804E+06
   3723      1     43     98      0.6299E-01      0.6804E+06
   3724      1     43     99      0.6362E-01      0.6804E+06
   3725      1     43    100      0.6436E-01      0.6804E+06
   3726      1     44      1      0.6289          0.6804E+06
   3727      1     44      2      0.5845          0.6804E+06
   3728      1     44      3      0.5454          0.6804E+06
   3729      1     44      4      0.5026          0.6804E+06
   3730      1     44      5      0.4648          0.6804E+06
   3731      1     44      6      0.4376          0.6804E+06
   3732      1     44      7      0.4120          0.6804E+06
   3733      1     44      8      0.3909          0.6804E+06
   3734      1     44      9      0.3748          0.6804E+06
   3735      1     44     10      0.3574          0.6804E+06
   3736      1     44     11      0.3419          0.6804E+06
   3737      1     44     12      0.3227          0.6804E+06
   3738      1     44     13      0.3002          0.6804E+06
   3739      1     44     14      0.2776          0.6804E+06
   3740      1     44     15      0.2495          0.6804E+06
   3741      1     44     16      0.2232          0.6804E+06
   3742      1     44     17      0.1919          0.6804E+06
   3743      1     44     18      0.1586          0.6804E+06
   3744      1     44     19      0.1286          0.6804E+06
   3745      1     44     20      0.9548E-01      0.6804E+06
   3746      1     44     21      0.6861E-01      0.6804E+06
   3747      1     44     22      0.5639E-01      0.6804E+06
   3748      1     44     23      0.5424E-01      0.6804E+06
   3749      1     44     24      0.5758E-01      0.6804E+06
   3750      1     44     25      0.6075E-01      0.6804E+06
   3751      1     44     58     -0.5545E-01      0.6804E+06
   3752      1     44     59     -0.5118E-01      0.6804E+06
   3753      1     44     60       0.000          0.6804E+06
   3754      1     44     61       0.000          0.6804E+06
   3755      1     44     62       0.000          0.6804E+06
   3756      1     44     63       0.000          0.6804E+06
   3757      1     44     64       0.000          0.6804E+06
   3758      1     44     65       0.000          0.6804E+06
   3759      1     44     66       0.000          0.6804E+06
   3760      1     44     67       0.000          0.6804E+06
   3761      1     44     68       0.000          0.6804E+06
   3762      1     44     69       0.000          0.6804E+06
   3763      1     44     70       0.000          0.6804E+06
   3764      1     44     71       0.000          0.6804E+06
   3765      1     44     72       0.000          0.6804E+06
   3766      1     44     73       0.000          0.6804E+06
   3767      1     44     74       0.000          0.6804E+06
   3768      1     44     75       0.000          0.6804E+06
   3769      1     44     76       0.000          0.6804E+06
   3770      1     44     77       0.000          0.6804E+06
   3771      1     44     78       0.000          0.6804E+06
   3772      1     44     79      0.9758E-02      0.6804E+06
   3773      1     44     80      0.2919E-01      0.6804E+06
   3774      1     44     81      0.4648E-01      0.6804E+06
   3775      1     44     82      0.5915E-01      0.6804E+06
   3776      1     44     83      0.6663E-01      0.6804E+06
   3777      1     44     84      0.7079E-01      0.6804E+06
   3778      1     44     85      0.7158E-01      0.6804E+06
   3779      1     44     86      0.7042E-01      0.6804E+06
   3780      1     44     87      0.6816E-01      0.6804E+06
   3781      1     44     88      0.6618E-01      0.6804E+06
   3782      1     44     89      0.6466E-01      0.6804E+06
   3783      1     44     90      0.6404E-01      0.6804E+06
   3784      1     44     91      0.6382E-01      0.6804E+06
   3785      1     44     92      0.6360E-01      0.6804E+06
   3786      1     44     93      0.6335E-01      0.6804E+06
   3787      1     44     94      0.6301E-01      0.6804E+06
   3788      1     44     95      0.6268E-01      0.6804E+06
   3789      1     44     96      0.6252E-01      0.6804E+06
   3790      1     44     97      0.6256E-01      0.6804E+06
   3791      1     44     98      0.6314E-01      0.6804E+06
   3792      1     44     99      0.6399E-01      0.6804E+06
   3793      1     44    100      0.6485E-01      0.6804E+06
   3794      1     45      1      0.6309          0.6804E+06
   3795      1     45      2      0.5825          0.6804E+06
   3796      1     45      3      0.5394          0.6804E+06
   3797      1     45      4      0.4919          0.6804E+06
   3798      1     45      5      0.4508          0.6804E+06
   3799      1     45      6      0.4237          0.6804E+06
   3800      1     45      7      0.4003          0.6804E+06
   3801      1     45      8      0.3816          0.6804E+06
   3802      1     45      9      0.3674          0.6804E+06
   3803      1     45     10      0.3522          0.6804E+06
   3804      1     45     11      0.3385          0.6804E+06
   3805      1     45     12      0.3211          0.6804E+06
   3806      1     45     13      0.3000          0.6804E+06
   3807      1     45     14      0.2785          0.6804E+06
   3808      1     45     15      0.2514          0.6804E+06
   3809      1     45     16      0.2259          0.6804E+06
   3810      1     45     17      0.1956          0.6804E+06
   3811      1     45     18      0.1639          0.6804E+06
   3812      1     45     19      0.1352          0.6804E+06
   3813      1     45     20      0.1040          0.6804E+06
   3814      1     45     21      0.8058E-01      0.6804E+06
   3815      1     45     22      0.6985E-01      0.6804E+06
   3816      1     45     23      0.6611E-01      0.6804E+06
   3817      1     45     24      0.6714E-01      0.6804E+06
   3818      1     45     25      0.6874E-01      0.6804E+06
   3819      1     45     58     -0.5572E-01      0.6804E+06
   3820      1     45     59     -0.5058E-01      0.6804E+06
   3821      1     45     60       0.000          0.6804E+06
   3822      1     45     61       0.000          0.6804E+06
   3823      1     45     62       0.000          0.6804E+06
   3824      1     45     63       0.000          0.6804E+06
   3825      1     45     64       0.000          0.6804E+06
   3826      1     45     65       0.000          0.6804E+06
   3827      1     45     66       0.000          0.6804E+06
   3828      1     45     67       0.000          0.6804E+06
   3829      1     45     68       0.000          0.6804E+06
   3830      1     45     69       0.000          0.6804E+06
   3831      1     45     70       0.000          0.6804E+06
   3832      1     45     71       0.000          0.6804E+06
   3833      1     45     72       0.000          0.6804E+06
   3834      1     45     73       0.000          0.6804E+06
   3835      1     45     74       0.000          0.6804E+06
   3836      1     45     75       0.000          0.6804E+06
   3837      1     45     76       0.000          0.6804E+06
   3838      1     45     77       0.000          0.6804E+06
   3839      1     45     78      0.8691E-02      0.6804E+06
   3840      1     45     79      0.2846E-01      0.6804E+06
   3841      1     45     80      0.4638E-01      0.6804E+06
   3842      1     45     81      0.6039E-01      0.6804E+06
   3843      1     45     82      0.6919E-01      0.6804E+06
   3844      1     45     83      0.7359E-01      0.6804E+06
   3845      1     45     84      0.7522E-01      0.6804E+06
   3846      1     45     85      0.7465E-01      0.6804E+06
   3847      1     45     86      0.7222E-01      0.6804E+06
   3848      1     45     87      0.6868E-01      0.6804E+06
   3849      1     45     88      0.6579E-01      0.6804E+06
   3850      1     45     89      0.6454E-01      0.6804E+06
   3851      1     45     90      0.6439E-01      0.6804E+06
   3852      1     45     91      0.6441E-01      0.6804E+06
   3853      1     45     92      0.6419E-01      0.6804E+06
   3854      1     45     93      0.6374E-01      0.6804E+06
   3855      1     45     94      0.6307E-01      0.6804E+06
   3856      1     45     95      0.6265E-01      0.6804E+06
   3857      1     45     96      0.6259E-01      0.6804E+06
   3858      1     45     97      0.6267E-01      0.6804E+06
   3859      1     45     98      0.6335E-01      0.6804E+06
   3860      1     45     99      0.6438E-01      0.6804E+06
   3861      1     45    100      0.6549E-01      0.6804E+06
   3862      1     46      1      0.6333          0.6804E+06
   3863      1     46      2      0.5811          0.6804E+06
   3864      1     46      3      0.5343          0.6804E+06
   3865      1     46      4      0.4823          0.6804E+06
   3866      1     46      5      0.4381          0.6804E+06
   3867      1     46      6      0.4111          0.6804E+06
   3868      1     46      7      0.3899          0.6804E+06
   3869      1     46      8      0.3733          0.6804E+06
   3870      1     46      9      0.3609          0.6804E+06
   3871      1     46     10      0.3478          0.6804E+06
   3872      1     46     11      0.3360          0.6804E+06
   3873      1     46     12      0.3208          0.6804E+06
   3874      1     46     13      0.3008          0.6804E+06
   3875      1     46     14      0.2799          0.6804E+06
   3876      1     46     15      0.2535          0.6804E+06
   3877      1     46     16      0.2288          0.6804E+06
   3878      1     46     17      0.1991          0.6804E+06
   3879      1     46     18      0.1679          0.6804E+06
   3880      1     46     19      0.1400          0.6804E+06
   3881      1     46     20      0.1101          0.6804E+06
   3882      1     46     21      0.8840E-01      0.6804E+06
   3883      1     46     22      0.7844E-01      0.6804E+06
   3884      1     46     23      0.7441E-01      0.6804E+06
   3885      1     46     24      0.7467E-01      0.6804E+06
   3886      1     46     58     -0.5501E-01      0.6804E+06
   3887      1     46     59     -0.5001E-01      0.6804E+06
   3888      1     46     60       0.000          0.6804E+06
   3889      1     46     61       0.000          0.6804E+06
   3890      1     46     62       0.000          0.6804E+06
   3891      1     46     63       0.000          0.6804E+06
   3892      1     46     64       0.000          0.6804E+06
   3893      1     46     65       0.000          0.6804E+06
   3894      1     46     66       0.000          0.6804E+06
   3895      1     46     67       0.000          0.6804E+06
   3896      1     46     68       0.000          0.6804E+06
   3897      1     46     69       0.000          0.6804E+06
   3898      1     46     70       0.000          0.6804E+06
   3899      1     46     71       0.000          0.6804E+06
   3900      1     46     72       0.000          0.6804E+06
   3901      1     46     73       0.000          0.6804E+06
   3902      1     46     74       0.000          0.6804E+06
   3903      1     46     75       0.000          0.6804E+06
   3904      1     46     76       0.000          0.6804E+06
   3905      1     46     77      0.7908E-02      0.6804E+06
   3906      1     46     78      0.2555E-01      0.6804E+06
   3907      1     46     79      0.4599E-01      0.6804E+06
   3908      1     46     80      0.6374E-01      0.6804E+06
   3909      1     46     81      0.7417E-01      0.6804E+06
   3910      1     46     82      0.7869E-01      0.6804E+06
   3911      1     46     83      0.8019E-01      0.6804E+06
   3912      1     46     84      0.7972E-01      0.6804E+06
   3913      1     46     85      0.7811E-01      0.6804E+06
   3914      1     46     86      0.7472E-01      0.6804E+06
   3915      1     46     87      0.7008E-01      0.6804E+06
   3916      1     46     88      0.6631E-01      0.6804E+06
   3917      1     46     89      0.6561E-01      0.6804E+06
   3918      1     46     90      0.6593E-01      0.6804E+06
   3919      1     46     91      0.6608E-01      0.6804E+06
   3920      1     46     92      0.6569E-01      0.6804E+06
   3921      1     46     93      0.6435E-01      0.6804E+06
   3922      1     46     94      0.6333E-01      0.6804E+06
   3923      1     46     95      0.6289E-01      0.6804E+06
   3924      1     46     96      0.6277E-01      0.6804E+06
   3925      1     46     97      0.6300E-01      0.6804E+06
   3926      1     46     98      0.6365E-01      0.6804E+06
   3927      1     46     99      0.6472E-01      0.6804E+06
   3928      1     46    100      0.6612E-01      0.6804E+06
   3929      1     47      1      0.6372          0.6804E+06
   3930      1     47      2      0.5806          0.6804E+06
   3931      1     47      3      0.5303          0.6804E+06
   3932      1     47      4      0.4750          0.6804E+06
   3933      1     47      5      0.4283          0.6804E+06
   3934      1     47      6      0.4004          0.6804E+06
   3935      1     47      7      0.3800          0.6804E+06
   3936      1     47      8      0.3647          0.6804E+06
   3937      1     47      9      0.3538          0.6804E+06
   3938      1     47     10      0.3428          0.6804E+06
   3939      1     47     11      0.3333          0.6804E+06
   3940      1     47     12      0.3206          0.6804E+06
   3941      1     47     13      0.3020          0.6804E+06
   3942      1     47     14      0.2818          0.6804E+06
   3943      1     47     15      0.2562          0.6804E+06
   3944      1     47     16      0.2323          0.6804E+06
   3945      1     47     17      0.2032          0.6804E+06
   3946      1     47     18      0.1722          0.6804E+06
   3947      1     47     19      0.1443          0.6804E+06
   3948      1     47     20      0.1142          0.6804E+06
   3949      1     47     21      0.9314E-01      0.6804E+06
   3950      1     47     22      0.8448E-01      0.6804E+06
   3951      1     47     23      0.8120E-01      0.6804E+06
   3952      1     47     24      0.8104E-01      0.6804E+06
   3953      1     47     58     -0.5369E-01      0.6804E+06
   3954      1     47     59     -0.5154E-01      0.6804E+06
   3955      1     47     60       0.000          0.6804E+06
   3956      1     47     61       0.000          0.6804E+06
   3957      1     47     62       0.000          0.6804E+06
   3958      1     47     63       0.000          0.6804E+06
   3959      1     47     64       0.000          0.6804E+06
   3960      1     47     65       0.000          0.6804E+06
   3961      1     47     66       0.000          0.6804E+06
   3962      1     47     67       0.000          0.6804E+06
   3963      1     47     68       0.000          0.6804E+06
   3964      1     47     69       0.000          0.6804E+06
   3965      1     47     70       0.000          0.6804E+06
   3966      1     47     71       0.000          0.6804E+06
   3967      1     47     72       0.000          0.6804E+06
   3968      1     47     73       0.000          0.6804E+06
   3969      1     47     74       0.000          0.6804E+06
   3970      1     47     75       0.000          0.6804E+06
   3971      1     47     76       0.000          0.6804E+06
   3972      1     47     77      0.1581E-01      0.6804E+06
   3973      1     47     78      0.4050E-01      0.6804E+06
   3974      1     47     79      0.6354E-01      0.6804E+06
   3975      1     47     80      0.8014E-01      0.6804E+06
   3976      1     47     81      0.8707E-01      0.6804E+06
   3977      1     47     82      0.8779E-01      0.6804E+06
   3978      1     47     83      0.8671E-01      0.6804E+06
   3979      1     47     84      0.8422E-01      0.6804E+06
   3980      1     47     85      0.8200E-01      0.6804E+06
   3981      1     47     86      0.7849E-01      0.6804E+06
   3982      1     47     87      0.7391E-01      0.6804E+06
   3983      1     47     88      0.7041E-01      0.6804E+06
   3984      1     47     89      0.6935E-01      0.6804E+06
   3985      1     47     90      0.6884E-01      0.6804E+06
   3986      1     47     91      0.6821E-01      0.6804E+06
   3987      1     47     92      0.6723E-01      0.6804E+06
   3988      1     47     93      0.6591E-01      0.6804E+06
   3989      1     47     94      0.6462E-01      0.6804E+06
   3990      1     47     95      0.6372E-01      0.6804E+06
   3991      1     47     96      0.6328E-01      0.6804E+06
   3992      1     47     97      0.6335E-01      0.6804E+06
   3993      1     47     98      0.6391E-01      0.6804E+06
   3994      1     47     99      0.6510E-01      0.6804E+06
   3995      1     47    100      0.6690E-01      0.6804E+06
   3996      1     48      1      0.6411          0.6804E+06
   3997      1     48      2      0.5810          0.6804E+06
   3998      1     48      3      0.5283          0.6804E+06
   3999      1     48      4      0.4719          0.6804E+06
   4000      1     48      5      0.4251          0.6804E+06
   4001      1     48      6      0.3953          0.6804E+06
   4002      1     48      7      0.3723          0.6804E+06
   4003      1     48      8      0.3567          0.6804E+06
   4004      1     48      9      0.3469          0.6804E+06
   4005      1     48     10      0.3377          0.6804E+06
   4006      1     48     11      0.3297          0.6804E+06
   4007      1     48     12      0.3184          0.6804E+06
   4008      1     48     13      0.3018          0.6804E+06
   4009      1     48     14      0.2831          0.6804E+06
   4010      1     48     15      0.2587          0.6804E+06
   4011      1     48     16      0.2356          0.6804E+06
   4012      1     48     17      0.2078          0.6804E+06
   4013      1     48     18      0.1774          0.6804E+06
   4014      1     48     19      0.1486          0.6804E+06
   4015      1     48     20      0.1161          0.6804E+06
   4016      1     48     21      0.9436E-01      0.6804E+06
   4017      1     48     22      0.8738E-01      0.6804E+06
   4018      1     48     23      0.8581E-01      0.6804E+06
   4019      1     48     24      0.8545E-01      0.6804E+06
   4020      1     48     58     -0.4684E-01      0.6804E+06
   4021      1     48     59     -0.4970E-01      0.6804E+06
   4022      1     48     60       0.000          0.6804E+06
   4023      1     48     61       0.000          0.6804E+06
   4024      1     48     62       0.000          0.6804E+06
   4025      1     48     63       0.000          0.6804E+06
   4026      1     48     64       0.000          0.6804E+06
   4027      1     48     65       0.000          0.6804E+06
   4028      1     48     66       0.000          0.6804E+06
   4029      1     48     67       0.000          0.6804E+06
   4030      1     48     68       0.000          0.6804E+06
   4031      1     48     69       0.000          0.6804E+06
   4032      1     48     70       0.000          0.6804E+06
   4033      1     48     71       0.000          0.6804E+06
   4034      1     48     72       0.000          0.6804E+06
   4035      1     48     73       0.000          0.6804E+06
   4036      1     48     74       0.000          0.6804E+06
   4037      1     48     75       0.000          0.6804E+06
   4038      1     48     76       0.000          0.6804E+06
   4039      1     48     77      0.2057E-01      0.6804E+06
   4040      1     48     78      0.5094E-01      0.6804E+06
   4041      1     48     79      0.7419E-01      0.6804E+06
   4042      1     48     80      0.8650E-01      0.6804E+06
   4043      1     48     81      0.9218E-01      0.6804E+06
   4044      1     48     82      0.9262E-01      0.6804E+06
   4045      1     48     83      0.9068E-01      0.6804E+06
   4046      1     48     84      0.8726E-01      0.6804E+06
   4047      1     48     85      0.8525E-01      0.6804E+06
   4048      1     48     86      0.8264E-01      0.6804E+06
   4049      1     48     87      0.7914E-01      0.6804E+06
   4050      1     48     88      0.7656E-01      0.6804E+06
   4051      1     48     89      0.7440E-01      0.6804E+06
   4052      1     48     90      0.7256E-01      0.6804E+06
   4053      1     48     91      0.7109E-01      0.6804E+06
   4054      1     48     92      0.6944E-01      0.6804E+06
   4055      1     48     93      0.6789E-01      0.6804E+06
   4056      1     48     94      0.6611E-01      0.6804E+06
   4057      1     48     95      0.6456E-01      0.6804E+06
   4058      1     48     96      0.6361E-01      0.6804E+06
   4059      1     48     97      0.6340E-01      0.6804E+06
   4060      1     48     98      0.6396E-01      0.6804E+06
   4061      1     48     99      0.6543E-01      0.6804E+06
   4062      1     48    100      0.6775E-01      0.6804E+06
   4063      1     49      1      0.6445          0.6804E+06
   4064      1     49      2      0.5812          0.6804E+06
   4065      1     49      3      0.5260          0.6804E+06
   4066      1     49      4      0.4680          0.6804E+06
   4067      1     49      5      0.4202          0.6804E+06
   4068      1     49      6      0.3889          0.6804E+06
   4069      1     49      7      0.3645          0.6804E+06
   4070      1     49      8      0.3492          0.6804E+06
   4071      1     49      9      0.3404          0.6804E+06
   4072      1     49     10      0.3328          0.6804E+06
   4073      1     49     11      0.3263          0.6804E+06
   4074      1     49     12      0.3166          0.6804E+06
   4075      1     49     13      0.3015          0.6804E+06
   4076      1     49     14      0.2841          0.6804E+06
   4077      1     49     15      0.2606          0.6804E+06
   4078      1     49     16      0.2384          0.6804E+06
   4079      1     49     17      0.2125          0.6804E+06
   4080      1     49     18      0.1836          0.6804E+06
   4081      1     49     19      0.1544          0.6804E+06
   4082      1     49     20      0.1186          0.6804E+06
   4083      1     49     21      0.9563E-01      0.6804E+06
   4084      1     49     22      0.8942E-01      0.6804E+06
   4085      1     49     23      0.8890E-01      0.6804E+06
   4086      1     49     24      0.8791E-01      0.6804E+06
   4087      1     49     58     -0.3985E-01      0.6804E+06
   4088      1     49     59     -0.4826E-01      0.6804E+06
   4089      1     49     60       0.000          0.6804E+06
   4090      1     49     61       0.000          0.6804E+06
   4091      1     49     62       0.000          0.6804E+06
   4092      1     49     63       0.000          0.6804E+06
   4093      1     49     64       0.000          0.6804E+06
   4094      1     49     65       0.000          0.6804E+06
   4095      1     49     66       0.000          0.6804E+06
   4096      1     49     67       0.000          0.6804E+06
   4097      1     49     68       0.000          0.6804E+06
   4098      1     49     69       0.000          0.6804E+06
   4099      1     49     70       0.000          0.6804E+06
   4100      1     49     71       0.000          0.6804E+06
   4101      1     49     72       0.000          0.6804E+06
   4102      1     49     73       0.000          0.6804E+06
   4103      1     49     74       0.000          0.6804E+06
   4104      1     49     75       0.000          0.6804E+06
   4105      1     49     76       0.000          0.6804E+06
   4106      1     49     77      0.2617E-01      0.6804E+06
   4107      1     49     78      0.5977E-01      0.6804E+06
   4108      1     49     79      0.8224E-01      0.6804E+06
   4109      1     49     80      0.9056E-01      0.6804E+06
   4110      1     49     81      0.9371E-01      0.6804E+06
   4111      1     49     82      0.9331E-01      0.6804E+06
   4112      1     49     83      0.9132E-01      0.6804E+06
   4113      1     49     84      0.8868E-01      0.6804E+06
   4114      1     49     85      0.8744E-01      0.6804E+06
   4115      1     49     86      0.8587E-01      0.6804E+06
   4116      1     49     87      0.8338E-01      0.6804E+06
   4117      1     49     88      0.8144E-01      0.6804E+06
   4118      1     49     89      0.7867E-01      0.6804E+06
   4119      1     49     90      0.7617E-01      0.6804E+06
   4120      1     49     91      0.7440E-01      0.6804E+06
   4121      1     49     92      0.7222E-01      0.6804E+06
   4122      1     49     93      0.7004E-01      0.6804E+06
   4123      1     49     94      0.6758E-01      0.6804E+06
   4124      1     49     95      0.6541E-01      0.6804E+06
   4125      1     49     96      0.6392E-01      0.6804E+06
   4126      1     49     97      0.6339E-01      0.6804E+06
   4127      1     49     98      0.6404E-01      0.6804E+06
   4128      1     49     99      0.6595E-01      0.6804E+06
   4129      1     49    100      0.6881E-01      0.6804E+06
   4130      1     50      1      0.6484          0.6804E+06
   4131      1     50      2      0.5806          0.6804E+06
   4132      1     50      3      0.5216          0.6804E+06
   4133      1     50      4      0.4600          0.6804E+06
   4134      1     50      5      0.4096          0.6804E+06
   4135      1     50      6      0.3771          0.6804E+06
   4136      1     50      7      0.3532          0.6804E+06
   4137      1     50      8      0.3393          0.6804E+06
   4138      1     50      9      0.3323          0.6804E+06
   4139      1     50     10      0.3270          0.6804E+06
   4140      1     50     11      0.3229          0.6804E+06
   4141      1     50     12      0.3159          0.6804E+06
   4142      1     50     13      0.3022          0.6804E+06
   4143      1     50     14      0.2850          0.6804E+06
   4144      1     50     15      0.2614          0.6804E+06
   4145      1     50     16      0.2395          0.6804E+06
   4146      1     50     17      0.2147          0.6804E+06
   4147      1     50     18      0.1879          0.6804E+06
   4148      1     50     19      0.1614          0.6804E+06
   4149      1     50     20      0.1288          0.6804E+06
   4150      1     50     21      0.1070          0.6804E+06
   4151      1     50     22      0.9810E-01      0.6804E+06
   4152      1     50     23      0.9303E-01      0.6804E+06
   4153      1     50     24      0.8803E-01      0.6804E+06
   4154      1     50     25      0.7495E-01      0.6804E+06
   4155      1     50     58     -0.3243E-01      0.6804E+06
   4156      1     50     59       0.000          0.6804E+06
   4157      1     50     60       0.000          0.6804E+06
   4158      1     50     61       0.000          0.6804E+06
   4159      1     50     62       0.000          0.6804E+06
   4160      1     50     63       0.000          0.6804E+06
   4161      1     50     64       0.000          0.6804E+06
   4162      1     50     65       0.000          0.6804E+06
   4163      1     50     66       0.000          0.6804E+06
   4164      1     50     67       0.000          0.6804E+06
   4165      1     50     68       0.000          0.6804E+06
   4166      1     50     69       0.000          0.6804E+06
   4167      1     50     70       0.000          0.6804E+06
   4168      1     50     71       0.000          0.6804E+06
   4169      1     50     72       0.000          0.6804E+06
   4170      1     50     73       0.000          0.6804E+06
   4171      1     50     74       0.000          0.6804E+06
   4172      1     50     75       0.000          0.6804E+06
   4173      1     50     76       0.000          0.6804E+06
   4174      1     50     77      0.2622E-01      0.6804E+06
   4175      1     50     78      0.6102E-01      0.6804E+06
   4176      1     50     79      0.8206E-01      0.6804E+06
   4177      1     50     80      0.8855E-01      0.6804E+06
   4178      1     50     81      0.9105E-01      0.6804E+06
   4179      1     50     82      0.9102E-01      0.6804E+06
   4180      1     50     83      0.8983E-01      0.6804E+06
   4181      1     50     84      0.8921E-01      0.6804E+06
   4182      1     50     85      0.8859E-01      0.6804E+06
   4183      1     50     86      0.8761E-01      0.6804E+06
   4184      1     50     87      0.8664E-01      0.6804E+06
   4185      1     50     88      0.8608E-01      0.6804E+06
   4186      1     50     89      0.8334E-01      0.6804E+06
   4187      1     50     90      0.8048E-01      0.6804E+06
   4188      1     50     91      0.7860E-01      0.6804E+06
   4189      1     50     92      0.7598E-01      0.6804E+06
   4190      1     50     93      0.7338E-01      0.6804E+06
   4191      1     50     94      0.7021E-01      0.6804E+06
   4192      1     50     95      0.6711E-01      0.6804E+06
   4193      1     50     96      0.6480E-01      0.6804E+06
   4194      1     50     97      0.6365E-01      0.6804E+06
   4195      1     50     98      0.6446E-01      0.6804E+06
   4196      1     50     99      0.6716E-01      0.6804E+06
   4197      1     50    100      0.7078E-01      0.6804E+06
   4198      1     51      1      0.6524          0.6804E+06
   4199      1     51      2      0.5785          0.6804E+06
   4200      1     51      3      0.5145          0.6804E+06
   4201      1     51      4      0.4479          0.6804E+06
   4202      1     51      5      0.3935          0.6804E+06
   4203      1     51      6      0.3598          0.6804E+06
   4204      1     51      7      0.3389          0.6804E+06
   4205      1     51      8      0.3280          0.6804E+06
   4206      1     51      9      0.3233          0.6804E+06
   4207      1     51     10      0.3208          0.6804E+06
   4208      1     51     11      0.3194          0.6804E+06
   4209      1     51     12      0.3158          0.6804E+06
   4210      1     51     13      0.3028          0.6804E+06
   4211      1     51     14      0.2848          0.6804E+06
   4212      1     51     15      0.2597          0.6804E+06
   4213      1     51     16      0.2374          0.6804E+06
   4214      1     51     17      0.2126          0.6804E+06
   4215      1     51     18      0.1872          0.6804E+06
   4216      1     51     19      0.1642          0.6804E+06
   4217      1     51     20      0.1377          0.6804E+06
   4218      1     51     21      0.1180          0.6804E+06
   4219      1     51     22      0.1067          0.6804E+06
   4220      1     51     23      0.9668E-01      0.6804E+06
   4221      1     51     24      0.8690E-01      0.6804E+06
   4222      1     51     25      0.6720E-01      0.6804E+06
   4223      1     51     59       0.000          0.6804E+06
   4224      1     51     60       0.000          0.6804E+06
   4225      1     51     61       0.000          0.6804E+06
   4226      1     51     62       0.000          0.6804E+06
   4227      1     51     63       0.000          0.6804E+06
   4228      1     51     64       0.000          0.6804E+06
   4229      1     51     65       0.000          0.6804E+06
   4230      1     51     66       0.000          0.6804E+06
   4231      1     51     67       0.000          0.6804E+06
   4232      1     51     68       0.000          0.6804E+06
   4233      1     51     69       0.000          0.6804E+06
   4234      1     51     70       0.000          0.6804E+06
   4235      1     51     71       0.000          0.6804E+06
   4236      1     51     72       0.000          0.6804E+06
   4237      1     51     73       0.000          0.6804E+06
   4238      1     51     74       0.000          0.6804E+06
   4239      1     51     75       0.000          0.6804E+06
   4240      1     51     76       0.000          0.6804E+06
   4241      1     51     77      0.1992E-01      0.6804E+06
   4242      1     51     78      0.5330E-01      0.6804E+06
   4243      1     51     79      0.7253E-01      0.6804E+06
   4244      1     51     80      0.7934E-01      0.6804E+06
   4245      1     51     81      0.8335E-01      0.6804E+06
   4246      1     51     82      0.8528E-01      0.6804E+06
   4247      1     51     83      0.8566E-01      0.6804E+06
   4248      1     51     84      0.8673E-01      0.6804E+06
   4249      1     51     85      0.8706E-01      0.6804E+06
   4250      1     51     86      0.8713E-01      0.6804E+06
   4251      1     51     87      0.8749E-01      0.6804E+06
   4252      1     51     88      0.8754E-01      0.6804E+06
   4253      1     51     89      0.8595E-01      0.6804E+06
   4254      1     51     90      0.8414E-01      0.6804E+06
   4255      1     51     91      0.8279E-01      0.6804E+06
   4256      1     51     92      0.8023E-01      0.6804E+06
   4257      1     51     93      0.7771E-01      0.6804E+06
   4258      1     51     94      0.7434E-01      0.6804E+06
   4259      1     51     95      0.7050E-01      0.6804E+06
   4260      1     51     96      0.6706E-01      0.6804E+06
   4261      1     51     97      0.6477E-01      0.6804E+06
   4262      1     51     98      0.6573E-01      0.6804E+06
   4263      1     51     99      0.6979E-01      0.6804E+06
   4264      1     51    100      0.7431E-01      0.6804E+06
   4265      1     52      1      0.6540          0.6804E+06
   4266      1     52      2      0.5751          0.6804E+06
   4267      1     52      3      0.5075          0.6804E+06
   4268      1     52      4      0.4366          0.6804E+06
   4269      1     52      5      0.3773          0.6804E+06
   4270      1     52      6      0.3424          0.6804E+06
   4271      1     52      7      0.3261          0.6804E+06
   4272      1     52      8      0.3179          0.6804E+06
   4273      1     52      9      0.3149          0.6804E+06
   4274      1     52     10      0.3143          0.6804E+06
   4275      1     52     11      0.3148          0.6804E+06
   4276      1     52     12      0.3137          0.6804E+06
   4277      1     52     13      0.3010          0.6804E+06
   4278      1     52     14      0.2822          0.6804E+06
   4279      1     52     15      0.2558          0.6804E+06
   4280      1     52     16      0.2327          0.6804E+06
   4281      1     52     17      0.2073          0.6804E+06
   4282      1     52     18      0.1829          0.6804E+06
   4283      1     52     19      0.1628          0.6804E+06
   4284      1     52     20      0.1417          0.6804E+06
   4285      1     52     21      0.1245          0.6804E+06
   4286      1     52     22      0.1123          0.6804E+06
   4287      1     52     23      0.9941E-01      0.6804E+06
   4288      1     52     24      0.8616E-01      0.6804E+06
   4289      1     52     25      0.6153E-01      0.6804E+06
   4290      1     52     26      0.1179E-01      0.6804E+06
   4291      1     52     60       0.000          0.6804E+06
   4292      1     52     61       0.000          0.6804E+06
   4293      1     52     62       0.000          0.6804E+06
   4294      1     52     63       0.000          0.6804E+06
   4295      1     52     64       0.000          0.6804E+06
   4296      1     52     65       0.000          0.6804E+06
   4297      1     52     66       0.000          0.6804E+06
   4298      1     52     67       0.000          0.6804E+06
   4299      1     52     68       0.000          0.6804E+06
   4300      1     52     69       0.000          0.6804E+06
   4301      1     52     70       0.000          0.6804E+06
   4302      1     52     71       0.000          0.6804E+06
   4303      1     52     72       0.000          0.6804E+06
   4304      1     52     73       0.000          0.6804E+06
   4305      1     52     74       0.000          0.6804E+06
   4306      1     52     75       0.000          0.6804E+06
   4307      1     52     76       0.000          0.6804E+06
   4308      1     52     77      0.1572E-01      0.6804E+06
   4309      1     52     78      0.4284E-01      0.6804E+06
   4310      1     52     79      0.5901E-01      0.6804E+06
   4311      1     52     80      0.6666E-01      0.6804E+06
   4312      1     52     81      0.7299E-01      0.6804E+06
   4313      1     52     82      0.7746E-01      0.6804E+06
   4314      1     52     83      0.7968E-01      0.6804E+06
   4315      1     52     84      0.8252E-01      0.6804E+06
   4316      1     52     85      0.8423E-01      0.6804E+06
   4317      1     52     86      0.8557E-01      0.6804E+06
   4318      1     52     87      0.8694E-01      0.6804E+06
   4319      1     52     88      0.8758E-01      0.6804E+06
   4320      1     52     89      0.8741E-01      0.6804E+06
   4321      1     52     90      0.8709E-01      0.6804E+06
   4322      1     52     91      0.8682E-01      0.6804E+06
   4323      1     52     92      0.8502E-01      0.6804E+06
   4324      1     52     93      0.8294E-01      0.6804E+06
   4325      1     52     94      0.7981E-01      0.6804E+06
   4326      1     52     95      0.7585E-01      0.6804E+06
   4327      1     52     96      0.7188E-01      0.6804E+06
   4328      1     52     97      0.6865E-01      0.6804E+06
   4329      1     52     98      0.6960E-01      0.6804E+06
   4330      1     52     99      0.7478E-01      0.6804E+06
   4331      1     52    100      0.7955E-01      0.6804E+06
   4332      1     53      1      0.6516          0.6804E+06
   4333      1     53      2      0.5689          0.6804E+06
   4334      1     53      3      0.4989          0.6804E+06
   4335      1     53      4      0.4266          0.6804E+06
   4336      1     53      5      0.3680          0.6804E+06
   4337      1     53      6      0.3333          0.6804E+06
   4338      1     53      7      0.3159          0.6804E+06
   4339      1     53      8      0.3079          0.6804E+06
   4340      1     53      9      0.3056          0.6804E+06
   4341      1     53     10      0.3056          0.6804E+06
   4342      1     53     11      0.3059          0.6804E+06
   4343      1     53     12      0.3033          0.6804E+06
   4344      1     53     13      0.2912          0.6804E+06
   4345      1     53     14      0.2739          0.6804E+06
   4346      1     53     15      0.2486          0.6804E+06
   4347      1     53     16      0.2249          0.6804E+06
   4348      1     53     17      0.1988          0.6804E+06
   4349      1     53     18      0.1759          0.6804E+06
   4350      1     53     19      0.1590          0.6804E+06
   4351      1     53     20      0.1426          0.6804E+06
   4352      1     53     21      0.1282          0.6804E+06
   4353      1     53     22      0.1165          0.6804E+06
   4354      1     53     23      0.1024          0.6804E+06
   4355      1     53     24      0.8684E-01      0.6804E+06
   4356      1     53     25      0.5886E-01      0.6804E+06
   4357      1     53     26      0.2275E-01      0.6804E+06
   4358      1     53     27     -0.4083E-01      0.6804E+06
   4359      1     53     60       0.000          0.6804E+06
   4360      1     53     61       0.000          0.6804E+06
   4361      1     53     62       0.000          0.6804E+06
   4362      1     53     63       0.000          0.6804E+06
   4363      1     53     64       0.000          0.6804E+06
   4364      1     53     65       0.000          0.6804E+06
   4365      1     53     66       0.000          0.6804E+06
   4366      1     53     67       0.000          0.6804E+06
   4367      1     53     68       0.000          0.6804E+06
   4368      1     53     69       0.000          0.6804E+06
   4369      1     53     70       0.000          0.6804E+06
   4370      1     53     71       0.000          0.6804E+06
   4371      1     53     72       0.000          0.6804E+06
   4372      1     53     73       0.000          0.6804E+06
   4373      1     53     74       0.000          0.6804E+06
   4374      1     53     75       0.000          0.6804E+06
   4375      1     53     76       0.000          0.6804E+06
   4376      1     53     77      0.3067E-01      0.6804E+06
   4377      1     53     78      0.3098E-01      0.6804E+06
   4378      1     53     79      0.4053E-01      0.6804E+06
   4379      1     53     80      0.4985E-01      0.6804E+06
   4380      1     53     81      0.5936E-01      0.6804E+06
   4381      1     53     82      0.6622E-01      0.6804E+06
   4382      1     53     83      0.7034E-01      0.6804E+06
   4383      1     53     84      0.7698E-01      0.6804E+06
   4384      1     53     85      0.8097E-01      0.6804E+06
   4385      1     53     86      0.8344E-01      0.6804E+06
   4386      1     53     87      0.8571E-01      0.6804E+06
   4387      1     53     88      0.8765E-01      0.6804E+06
   4388      1     53     89      0.8923E-01      0.6804E+06
   4389      1     53     90      0.9073E-01      0.6804E+06
   4390      1     53     91      0.9206E-01      0.6804E+06
   4391      1     53     92      0.9175E-01      0.6804E+06
   4392      1     53     93      0.9055E-01      0.6804E+06
   4393      1     53     94      0.8819E-01      0.6804E+06
   4394      1     53     95      0.8493E-01      0.6804E+06
   4395      1     53     96      0.8153E-01      0.6804E+06
   4396      1     53     97      0.7871E-01      0.6804E+06
   4397      1     53     98      0.7956E-01      0.6804E+06
   4398      1     53     99      0.8438E-01      0.6804E+06
   4399      1     53    100      0.8848E-01      0.6804E+06
   4400      1     54      1      0.6457          0.6804E+06
   4401      1     54      2      0.5612          0.6804E+06
   4402      1     54      3      0.4902          0.6804E+06
   4403      1     54      4      0.4186          0.6804E+06
   4404      1     54      5      0.3628          0.6804E+06
   4405      1     54      6      0.3289          0.6804E+06
   4406      1     54      7      0.3089          0.6804E+06
   4407      1     54      8      0.3004          0.6804E+06
   4408      1     54      9      0.2982          0.6804E+06
   4409      1     54     10      0.2983          0.6804E+06
   4410      1     54     11      0.2982          0.6804E+06
   4411      1     54     12      0.2944          0.6804E+06
   4412      1     54     13      0.2827          0.6804E+06
   4413      1     54     14      0.2663          0.6804E+06
   4414      1     54     15      0.2418          0.6804E+06
   4415      1     54     16      0.2176          0.6804E+06
   4416      1     54     17      0.1901          0.6804E+06
   4417      1     54     18      0.1683          0.6804E+06
   4418      1     54     19      0.1550          0.6804E+06
   4419      1     54     20      0.1420          0.6804E+06
   4420      1     54     21      0.1300          0.6804E+06
   4421      1     54     22      0.1195          0.6804E+06
   4422      1     54     23      0.1059          0.6804E+06
   4423      1     54     24      0.9019E-01      0.6804E+06
   4424      1     54     25      0.6155E-01      0.6804E+06
   4425      1     54     26      0.2269E-01      0.6804E+06
   4426      1     54     27     -0.3953E-01      0.6804E+06
   4427      1     54     60       0.000          0.6804E+06
   4428      1     54     61       0.000          0.6804E+06
   4429      1     54     62       0.000          0.6804E+06
   4430      1     54     63       0.000          0.6804E+06
   4431      1     54     64       0.000          0.6804E+06
   4432      1     54     65       0.000          0.6804E+06
   4433      1     54     66       0.000          0.6804E+06
   4434      1     54     67       0.000          0.6804E+06
   4435      1     54     68       0.000          0.6804E+06
   4436      1     54     69       0.000          0.6804E+06
   4437      1     54     70       0.000          0.6804E+06
   4438      1     54     71       0.000          0.6804E+06
   4439      1     54     72       0.000          0.6804E+06
   4440      1     54     73       0.000          0.6804E+06
   4441      1     54     74       0.000          0.6804E+06
   4442      1     54     75       0.000          0.6804E+06
   4443      1     54     76       0.000          0.6804E+06
   4444      1     54     77       0.000          0.6804E+06
   4445      1     54     78      0.5129E-02      0.6804E+06
   4446      1     54     79      0.1917E-01      0.6804E+06
   4447      1     54     80      0.3284E-01      0.6804E+06
   4448      1     54     81      0.4660E-01      0.6804E+06
   4449      1     54     82      0.5659E-01      0.6804E+06
   4450      1     54     83      0.6343E-01      0.6804E+06
   4451      1     54     84      0.7243E-01      0.6804E+06
   4452      1     54     85      0.7830E-01      0.6804E+06
   4453      1     54     86      0.8232E-01      0.6804E+06
   4454      1     54     87      0.8526E-01      0.6804E+06
   4455      1     54     88      0.8826E-01      0.6804E+06
   4456      1     54     89      0.9161E-01      0.6804E+06
   4457      1     54     90      0.9485E-01      0.6804E+06
   4458      1     54     91      0.9743E-01      0.6804E+06
   4459      1     54     92      0.9865E-01      0.6804E+06
   4460      1     54     93      0.9860E-01      0.6804E+06
   4461      1     54     94      0.9746E-01      0.6804E+06
   4462      1     54     95      0.9557E-01      0.6804E+06
   4463      1     54     96      0.9364E-01      0.6804E+06
   4464      1     54     97      0.9232E-01      0.6804E+06
   4465      1     54     98      0.9299E-01      0.6804E+06
   4466      1     54     99      0.9595E-01      0.6804E+06
   4467      1     54    100      0.9876E-01      0.6804E+06
   4468      1     55      1      0.6371          0.6804E+06
   4469      1     55      2      0.5506          0.6804E+06
   4470      1     55      3      0.4782          0.6804E+06
   4471      1     55      4      0.4064          0.6804E+06
   4472      1     55      5      0.3519          0.6804E+06
   4473      1     55      6      0.3198          0.6804E+06
   4474      1     55      7      0.3006          0.6804E+06
   4475      1     55      8      0.2928          0.6804E+06
   4476      1     55      9      0.2910          0.6804E+06
   4477      1     55     10      0.2914          0.6804E+06
   4478      1     55     11      0.2914          0.6804E+06
   4479      1     55     12      0.2875          0.6804E+06
   4480      1     55     13      0.2758          0.6804E+06
   4481      1     55     14      0.2597          0.6804E+06
   4482      1     55     15      0.2356          0.6804E+06
   4483      1     55     16      0.2117          0.6804E+06
   4484      1     55     17      0.1848          0.6804E+06
   4485      1     55     18      0.1648          0.6804E+06
   4486      1     55     19      0.1541          0.6804E+06
   4487      1     55     20      0.1429          0.6804E+06
   4488      1     55     21      0.1329          0.6804E+06
   4489      1     55     22      0.1240          0.6804E+06
   4490      1     55     23      0.1118          0.6804E+06
   4491      1     55     24      0.9718E-01      0.6804E+06
   4492      1     55     25      0.7122E-01      0.6804E+06
   4493      1     55     26      0.3151E-01      0.6804E+06
   4494      1     55     27     -0.1204E-01      0.6804E+06
   4495      1     55     60       0.000          0.6804E+06
   4496      1     55     61       0.000          0.6804E+06
   4497      1     55     62       0.000          0.6804E+06
   4498      1     55     63       0.000          0.6804E+06
   4499      1     55     64       0.000          0.6804E+06
   4500      1     55     65       0.000          0.6804E+06
   4501      1     55     66       0.000          0.6804E+06
   4502      1     55     67       0.000          0.6804E+06
   4503      1     55     68       0.000          0.6804E+06
   4504      1     55     69       0.000          0.6804E+06
   4505      1     55     70       0.000          0.6804E+06
   4506      1     55     71       0.000          0.6804E+06
   4507      1     55     72       0.000          0.6804E+06
   4508      1     55     73       0.000          0.6804E+06
   4509      1     55     74       0.000          0.6804E+06
   4510      1     55     75       0.000          0.6804E+06
   4511      1     55     76       0.000          0.6804E+06
   4512      1     55     77       0.000          0.6804E+06
   4513      1     55     78       0.000          0.6804E+06
   4514      1     55     79       0.000          0.6804E+06
   4515      1     55     80      0.1475E-01      0.6804E+06
   4516      1     55     81      0.3321E-01      0.6804E+06
   4517      1     55     82      0.4759E-01      0.6804E+06
   4518      1     55     83      0.5775E-01      0.6804E+06
   4519      1     55     84      0.6920E-01      0.6804E+06
   4520      1     55     85      0.7678E-01      0.6804E+06
   4521      1     55     86      0.8222E-01      0.6804E+06
   4522      1     55     87      0.8665E-01      0.6804E+06
   4523      1     55     88      0.9097E-01      0.6804E+06
   4524      1     55     89      0.9613E-01      0.6804E+06
   4525      1     55     90      0.1012          0.6804E+06
   4526      1     55     91      0.1052          0.6804E+06
   4527      1     55     92      0.1084          0.6804E+06
   4528      1     55     93      0.1098          0.6804E+06
   4529      1     55     94      0.1102          0.6804E+06
   4530      1     55     95      0.1099          0.6804E+06
   4531      1     55     96      0.1094          0.6804E+06
   4532      1     55     97      0.1092          0.6804E+06
   4533      1     55     98      0.1098          0.6804E+06
   4534      1     55     99      0.1116          0.6804E+06
   4535      1     55    100      0.1131          0.6804E+06
   4536      1     56      1      0.6312          0.6804E+06
   4537      1     56      2      0.5409          0.6804E+06
   4538      1     56      3      0.4642          0.6804E+06
   4539      1     56      4      0.3887          0.6804E+06
   4540      1     56      5      0.3345          0.6804E+06
   4541      1     56      6      0.3061          0.6804E+06
   4542      1     56      7      0.2913          0.6804E+06
   4543      1     56      8      0.2862          0.6804E+06
   4544      1     56      9      0.2857          0.6804E+06
   4545      1     56     10      0.2869          0.6804E+06
   4546      1     56     11      0.2876          0.6804E+06
   4547      1     56     12      0.2847          0.6804E+06
   4548      1     56     13      0.2729          0.6804E+06
   4549      1     56     14      0.2561          0.6804E+06
   4550      1     56     15      0.2319          0.6804E+06
   4551      1     56     16      0.2096          0.6804E+06
   4552      1     56     17      0.1859          0.6804E+06
   4553      1     56     18      0.1684          0.6804E+06
   4554      1     56     19      0.1589          0.6804E+06
   4555      1     56     20      0.1490          0.6804E+06
   4556      1     56     21      0.1399          0.6804E+06
   4557      1     56     22      0.1312          0.6804E+06
   4558      1     56     23      0.1194          0.6804E+06
   4559      1     56     24      0.1062          0.6804E+06
   4560      1     56     25      0.8524E-01      0.6804E+06
   4561      1     56     26      0.5596E-01      0.6804E+06
   4562      1     56     27      0.1974E-01      0.6804E+06
   4563      1     56     60       0.000          0.6804E+06
   4564      1     56     61       0.000          0.6804E+06
   4565      1     56     62       0.000          0.6804E+06
   4566      1     56     63       0.000          0.6804E+06
   4567      1     56     64       0.000          0.6804E+06
   4568      1     56     65       0.000          0.6804E+06
   4569      1     56     66       0.000          0.6804E+06
   4570      1     56     67       0.000          0.6804E+06
   4571      1     56     68       0.000          0.6804E+06
   4572      1     56     69       0.000          0.6804E+06
   4573      1     56     70       0.000          0.6804E+06
   4574      1     56     71       0.000          0.6804E+06
   4575      1     56     72       0.000          0.6804E+06
   4576      1     56     73       0.000          0.6804E+06
   4577      1     56     74       0.000          0.6804E+06
   4578      1     56     75       0.000          0.6804E+06
   4579      1     56     76       0.000          0.6804E+06
   4580      1     56     77       0.000          0.6804E+06
   4581      1     56     78       0.000          0.6804E+06
   4582      1     56     79       0.000          0.6804E+06
   4583      1     56     80      0.2085E-02      0.6804E+06
   4584      1     56     81      0.2358E-01      0.6804E+06
   4585      1     56     82      0.4190E-01      0.6804E+06
   4586      1     56     83      0.5476E-01      0.6804E+06
   4587      1     56     84      0.6855E-01      0.6804E+06
   4588      1     56     85      0.7777E-01      0.6804E+06
   4589      1     56     86      0.8464E-01      0.6804E+06
   4590      1     56     87      0.9097E-01      0.6804E+06
   4591      1     56     88      0.9667E-01      0.6804E+06
   4592      1     56     89      0.1034          0.6804E+06
   4593      1     56     90      0.1098          0.6804E+06
   4594      1     56     91      0.1150          0.6804E+06
   4595      1     56     92      0.1195          0.6804E+06
   4596      1     56     93      0.1222          0.6804E+06
   4597      1     56     94      0.1241          0.6804E+06
   4598      1     56     95      0.1254          0.6804E+06
   4599      1     56     96      0.1262          0.6804E+06
   4600      1     56     97      0.1269          0.6804E+06
   4601      1     56     98      0.1277          0.6804E+06
   4602      1     56     99      0.1290          0.6804E+06
   4603      1     56    100      0.1295          0.6804E+06
   4604      1     57      1      0.6304          0.6804E+06
   4605      1     57      2      0.5364          0.6804E+06
   4606      1     57      3      0.4541          0.6804E+06
   4607      1     57      4      0.3704          0.6804E+06
   4608      1     57      5      0.3153          0.6804E+06
   4609      1     57      6      0.2940          0.6804E+06
   4610      1     57      7      0.2853          0.6804E+06
   4611      1     57      8      0.2832          0.6804E+06
   4612      1     57      9      0.2837          0.6804E+06
   4613      1     57     10      0.2851          0.6804E+06
   4614      1     57     11      0.2857          0.6804E+06
   4615      1     57     12      0.2836          0.6804E+06
   4616      1     57     13      0.2715          0.6804E+06
   4617      1     57     14      0.2540          0.6804E+06
   4618      1     57     15      0.2299          0.6804E+06
   4619      1     57     16      0.2093          0.6804E+06
   4620      1     57     17      0.1891          0.6804E+06
   4621      1     57     18      0.1748          0.6804E+06
   4622      1     57     19      0.1672          0.6804E+06
   4623      1     57     20      0.1603          0.6804E+06
   4624      1     57     21      0.1507          0.6804E+06
   4625      1     57     22      0.1400          0.6804E+06
   4626      1     57     23      0.1263          0.6804E+06
   4627      1     57     24      0.1140          0.6804E+06
   4628      1     57     25      0.9739E-01      0.6804E+06
   4629      1     57     26      0.7617E-01      0.6804E+06
   4630      1     57     27      0.5181E-01      0.6804E+06
   4631      1     57     28      0.1336E-01      0.6804E+06
   4632      1     57     60       0.000          0.6804E+06
   4633      1     57     61       0.000          0.6804E+06
   4634      1     57     62       0.000          0.6804E+06
   4635      1     57     63       0.000          0.6804E+06
   4636      1     57     64       0.000          0.6804E+06
   4637      1     57     65       0.000          0.6804E+06
   4638      1     57     66       0.000          0.6804E+06
   4639      1     57     67       0.000          0.6804E+06
   4640      1     57     68       0.000          0.6804E+06
   4641      1     57     69       0.000          0.6804E+06
   4642      1     57     70       0.000          0.6804E+06
   4643      1     57     71       0.000          0.6804E+06
   4644      1     57     72       0.000          0.6804E+06
   4645      1     57     73       0.000          0.6804E+06
   4646      1     57     74       0.000          0.6804E+06
   4647      1     57     75       0.000          0.6804E+06
   4648      1     57     76       0.000          0.6804E+06
   4649      1     57     77       0.000          0.6804E+06
   4650      1     57     78       0.000          0.6804E+06
   4651      1     57     79       0.000          0.6804E+06
   4652      1     57     80       0.000          0.6804E+06
   4653      1     57     81      0.2049E-01      0.6804E+06
   4654      1     57     82      0.4031E-01      0.6804E+06
   4655      1     57     83      0.5477E-01      0.6804E+06
   4656      1     57     84      0.7030E-01      0.6804E+06
   4657      1     57     85      0.8112E-01      0.6804E+06
   4658      1     57     86      0.8956E-01      0.6804E+06
   4659      1     57     87      0.9740E-01      0.6804E+06
   4660      1     57     88      0.1041          0.6804E+06
   4661      1     57     89      0.1119          0.6804E+06
   4662      1     57     90      0.1193          0.6804E+06
   4663      1     57     91      0.1253          0.6804E+06
   4664      1     57     92      0.1307          0.6804E+06
   4665      1     57     93      0.1343          0.6804E+06
   4666      1     57     94      0.1375          0.6804E+06
   4667      1     57     95      0.1399          0.6804E+06
   4668      1     57     96      0.1416          0.6804E+06
   4669      1     57     97      0.1430          0.6804E+06
   4670      1     57     98      0.1441          0.6804E+06
   4671      1     57     99      0.1452          0.6804E+06
   4672      1     57    100      0.1453          0.6804E+06
   4673      1     58      1      0.6357          0.6804E+06
   4674      1     58      2      0.5398          0.6804E+06
   4675      1     58      3      0.4534          0.6804E+06
   4676      1     58      4      0.3633          0.6804E+06
   4677      1     58      5      0.3074          0.6804E+06
   4678      1     58      6      0.2914          0.6804E+06
   4679      1     58      7      0.2860          0.6804E+06
   4680      1     58      8      0.2850          0.6804E+06
   4681      1     58      9      0.2852          0.6804E+06
   4682      1     58     10      0.2853          0.6804E+06
   4683      1     58     11      0.2844          0.6804E+06
   4684      1     58     12      0.2801          0.6804E+06
   4685      1     58     13      0.2674          0.6804E+06
   4686      1     58     14      0.2503          0.6804E+06
   4687      1     58     15      0.2270          0.6804E+06
   4688      1     58     16      0.2072          0.6804E+06
   4689      1     58     17      0.1894          0.6804E+06
   4690      1     58     18      0.1784          0.6804E+06
   4691      1     58     19      0.1751          0.6804E+06
   4692      1     58     20      0.1748          0.6804E+06
   4693      1     58     21      0.1637          0.6804E+06
   4694      1     58     22      0.1485          0.6804E+06
   4695      1     58     23      0.1314          0.6804E+06
   4696      1     58     24      0.1192          0.6804E+06
   4697      1     58     25      0.1056          0.6804E+06
   4698      1     58     26      0.8914E-01      0.6804E+06
   4699      1     58     27      0.6916E-01      0.6804E+06
   4700      1     58     28      0.3482E-01      0.6804E+06
   4701      1     58     60       0.000          0.6804E+06
   4702      1     58     61       0.000          0.6804E+06
   4703      1     58     62       0.000          0.6804E+06
   4704      1     58     63       0.000          0.6804E+06
   4705      1     58     64       0.000          0.6804E+06
   4706      1     58     65       0.000          0.6804E+06
   4707      1     58     66       0.000          0.6804E+06
   4708      1     58     67       0.000          0.6804E+06
   4709      1     58     68       0.000          0.6804E+06
   4710      1     58     69       0.000          0.6804E+06
   4711      1     58     70       0.000          0.6804E+06
   4712      1     58     71       0.000          0.6804E+06
   4713      1     58     72       0.000          0.6804E+06
   4714      1     58     73       0.000          0.6804E+06
   4715      1     58     74       0.000          0.6804E+06
   4716      1     58     75       0.000          0.6804E+06
   4717      1     58     76       0.000          0.6804E+06
   4718      1     58     77       0.000          0.6804E+06
   4719      1     58     78       0.000          0.6804E+06
   4720      1     58     79       0.000          0.6804E+06
   4721      1     58     80       0.000          0.6804E+06
   4722      1     58     81      0.2124E-01      0.6804E+06
   4723      1     58     82      0.4235E-01      0.6804E+06
   4724      1     58     83      0.5872E-01      0.6804E+06
   4725      1     58     84      0.7556E-01      0.6804E+06
   4726      1     58     85      0.8743E-01      0.6804E+06
   4727      1     58     86      0.9713E-01      0.6804E+06
   4728      1     58     87      0.1062          0.6804E+06
   4729      1     58     88      0.1138          0.6804E+06
   4730      1     58     89      0.1227          0.6804E+06
   4731      1     58     90      0.1315          0.6804E+06
   4732      1     58     91      0.1380          0.6804E+06
   4733      1     58     92      0.1443          0.6804E+06
   4734      1     58     93      0.1488          0.6804E+06
   4735      1     58     94      0.1527          0.6804E+06
   4736      1     58     95      0.1560          0.6804E+06
   4737      1     58     96      0.1583          0.6804E+06
   4738      1     58     97      0.1603          0.6804E+06
   4739      1     58     98      0.1617          0.6804E+06
   4740      1     58     99      0.1629          0.6804E+06
   4741      1     58    100      0.1629          0.6804E+06
   4742      1     59      1      0.6494          0.6804E+06
   4743      1     59      2      0.5567          0.6804E+06
   4744      1     59      3      0.4732          0.6804E+06
   4745      1     59      4      0.3870          0.6804E+06
   4746      1     59      5      0.3298          0.6804E+06
   4747      1     59      6      0.3085          0.6804E+06
   4748      1     59      7      0.2980          0.6804E+06
   4749      1     59      8      0.2934          0.6804E+06
   4750      1     59      9      0.2909          0.6804E+06
   4751      1     59     10      0.2882          0.6804E+06
   4752      1     59     11      0.2849          0.6804E+06
   4753      1     59     12      0.2776          0.6804E+06
   4754      1     59     13      0.2639          0.6804E+06
   4755      1     59     14      0.2469          0.6804E+06
   4756      1     59     15      0.2236          0.6804E+06
   4757      1     59     16      0.2030          0.6804E+06
   4758      1     59     17      0.1850          0.6804E+06
   4759      1     59     18      0.1755          0.6804E+06
   4760      1     59     19      0.1749          0.6804E+06
   4761      1     59     20      0.1754          0.6804E+06
   4762      1     59     21      0.1638          0.6804E+06
   4763      1     59     22      0.1476          0.6804E+06
   4764      1     59     23      0.1293          0.6804E+06
   4765      1     59     24      0.1181          0.6804E+06
   4766      1     59     25      0.1070          0.6804E+06
   4767      1     59     26      0.9443E-01      0.6804E+06
   4768      1     59     27      0.7971E-01      0.6804E+06
   4769      1     59     28      0.5402E-01      0.6804E+06
   4770      1     59     61       0.000          0.6804E+06
   4771      1     59     62       0.000          0.6804E+06
   4772      1     59     63       0.000          0.6804E+06
   4773      1     59     64       0.000          0.6804E+06
   4774      1     59     65       0.000          0.6804E+06
   4775      1     59     66       0.000          0.6804E+06
   4776      1     59     67       0.000          0.6804E+06
   4777      1     59     68       0.000          0.6804E+06
   4778      1     59     69       0.000          0.6804E+06
   4779      1     59     70       0.000          0.6804E+06
   4780      1     59     71       0.000          0.6804E+06
   4781      1     59     72       0.000          0.6804E+06
   4782      1     59     73       0.000          0.6804E+06
   4783      1     59     74       0.000          0.6804E+06
   4784      1     59     75       0.000          0.6804E+06
   4785      1     59     76       0.000          0.6804E+06
   4786      1     59     77       0.000          0.6804E+06
   4787      1     59     78       0.000          0.6804E+06
   4788      1     59     79       0.000          0.6804E+06
   4789      1     59     80      0.1650E-02      0.6804E+06
   4790      1     59     81      0.2706E-01      0.6804E+06
   4791      1     59     82      0.4928E-01      0.6804E+06
   4792      1     59     83      0.6667E-01      0.6804E+06
   4793      1     59     84      0.8386E-01      0.6804E+06
   4794      1     59     85      0.9644E-01      0.6804E+06
   4795      1     59     86      0.1079          0.6804E+06
   4796      1     59     87      0.1176          0.6804E+06
   4797      1     59     88      0.1263          0.6804E+06
   4798      1     59     89      0.1368          0.6804E+06
   4799      1     59     90      0.1469          0.6804E+06
   4800      1     59     91      0.1541          0.6804E+06
   4801      1     59     92      0.1614          0.6804E+06
   4802      1     59     93      0.1668          0.6804E+06
   4803      1     59     94      0.1716          0.6804E+06
   4804      1     59     95      0.1757          0.6804E+06
   4805      1     59     96      0.1789          0.6804E+06
   4806      1     59     97      0.1816          0.6804E+06
   4807      1     59     98      0.1835          0.6804E+06
   4808      1     59     99      0.1850          0.6804E+06
   4809      1     59    100      0.1851          0.6804E+06
   4810      1     60      1      0.6688          0.6804E+06
   4811      1     60      2      0.5820          0.6804E+06
   4812      1     60      3      0.5054          0.6804E+06
   4813      1     60      4      0.4270          0.6804E+06
   4814      1     60      5      0.3690          0.6804E+06
   4815      1     60      6      0.3378          0.6804E+06
   4816      1     60      7      0.3171          0.6804E+06
   4817      1     60      8      0.3057          0.6804E+06
   4818      1     60      9      0.2989          0.6804E+06
   4819      1     60     10      0.2927          0.6804E+06
   4820      1     60     11      0.2873          0.6804E+06
   4821      1     60     12      0.2784          0.6804E+06
   4822      1     60     13      0.2638          0.6804E+06
   4823      1     60     14      0.2457          0.6804E+06
   4824      1     60     15      0.2212          0.6804E+06
   4825      1     60     16      0.1994          0.6804E+06
   4826      1     60     17      0.1803          0.6804E+06
   4827      1     60     18      0.1710          0.6804E+06
   4828      1     60     19      0.1713          0.6804E+06
   4829      1     60     20      0.1696          0.6804E+06
   4830      1     60     21      0.1578          0.6804E+06
   4831      1     60     22      0.1417          0.6804E+06
   4832      1     60     23      0.1228          0.6804E+06
   4833      1     60     24      0.1137          0.6804E+06
   4834      1     60     25      0.1050          0.6804E+06
   4835      1     60     26      0.9487E-01      0.6804E+06
   4836      1     60     27      0.8268E-01      0.6804E+06
   4837      1     60     28      0.6146E-01      0.6804E+06
   4838      1     60     61       0.000          0.6804E+06
   4839      1     60     62       0.000          0.6804E+06
   4840      1     60     63       0.000          0.6804E+06
   4841      1     60     64       0.000          0.6804E+06
   4842      1     60     65       0.000          0.6804E+06
   4843      1     60     66       0.000          0.6804E+06
   4844      1     60     67       0.000          0.6804E+06
   4845      1     60     68       0.000          0.6804E+06
   4846      1     60     69       0.000          0.6804E+06
   4847      1     60     70       0.000          0.6804E+06
   4848      1     60     71       0.000          0.6804E+06
   4849      1     60     72       0.000          0.6804E+06
   4850      1     60     73       0.000          0.6804E+06
   4851      1     60     74       0.000          0.6804E+06
   4852      1     60     75       0.000          0.6804E+06
   4853      1     60     76       0.000          0.6804E+06
   4854      1     60     77       0.000          0.6804E+06
   4855      1     60     78       0.000          0.6804E+06
   4856      1     60     79       0.000          0.6804E+06
   4857      1     60     80      0.1271E-01      0.6804E+06
   4858      1     60     81      0.3838E-01      0.6804E+06
   4859      1     60     82      0.6108E-01      0.6804E+06
   4860      1     60     83      0.7876E-01      0.6804E+06
   4861      1     60     84      0.9578E-01      0.6804E+06
   4862      1     60     85      0.1085          0.6804E+06
   4863      1     60     86      0.1211          0.6804E+06
   4864      1     60     87      0.1311          0.6804E+06
   4865      1     60     88      0.1402          0.6804E+06
   4866      1     60     89      0.1514          0.6804E+06
   4867      1     60     90      0.1617          0.6804E+06
   4868      1     60     91      0.1691          0.6804E+06
   4869      1     60     92      0.1767          0.6804E+06
   4870      1     60     93      0.1824          0.6804E+06
   4871      1     60     94      0.1876          0.6804E+06
   4872      1     60     95      0.1923          0.6804E+06
   4873      1     60     96      0.1959          0.6804E+06
   4874      1     60     97      0.1991          0.6804E+06
   4875      1     60     98      0.2014          0.6804E+06
   4876      1     60     99      0.2032          0.6804E+06
   4877      1     60    100      0.2035          0.6804E+06
   4878      1     61      1      0.6976          0.6804E+06
   4879      1     61      2      0.6178          0.6804E+06
   4880      1     61      3      0.5477          0.6804E+06
   4881      1     61      4      0.4742          0.6804E+06
   4882      1     61      5      0.4134          0.6804E+06
   4883      1     61      6      0.3726          0.6804E+06
   4884      1     61      7      0.3405          0.6804E+06
   4885      1     61      8      0.3211          0.6804E+06
   4886      1     61      9      0.3091          0.6804E+06
   4887      1     61     10      0.2979          0.6804E+06
   4888      1     61     11      0.2905          0.6804E+06
   4889      1     61     12      0.2818          0.6804E+06
   4890      1     61     13      0.2666          0.6804E+06
   4891      1     61     14      0.2464          0.6804E+06
   4892      1     61     15      0.2205          0.6804E+06
   4893      1     61     16      0.1984          0.6804E+06
   4894      1     61     17      0.1790          0.6804E+06
   4895      1     61     18      0.1690          0.6804E+06
   4896      1     61     19      0.1679          0.6804E+06
   4897      1     61     20      0.1635          0.6804E+06
   4898      1     61     21      0.1507          0.6804E+06
   4899      1     61     22      0.1343          0.6804E+06
   4900      1     61     23      0.1152          0.6804E+06
   4901      1     61     24      0.1078          0.6804E+06
   4902      1     61     25      0.1013          0.6804E+06
   4903      1     61     26      0.9303E-01      0.6804E+06
   4904      1     61     27      0.8277E-01      0.6804E+06
   4905      1     61     28      0.6609E-01      0.6804E+06
   4906      1     61     61       0.000          0.6804E+06
   4907      1     61     62       0.000          0.6804E+06
   4908      1     61     63       0.000          0.6804E+06
   4909      1     61     64       0.000          0.6804E+06
   4910      1     61     65       0.000          0.6804E+06
   4911      1     61     66       0.000          0.6804E+06
   4912      1     61     67       0.000          0.6804E+06
   4913      1     61     68       0.000          0.6804E+06
   4914      1     61     69       0.000          0.6804E+06
   4915      1     61     70       0.000          0.6804E+06
   4916      1     61     71       0.000          0.6804E+06
   4917      1     61     72       0.000          0.6804E+06
   4918      1     61     73       0.000          0.6804E+06
   4919      1     61     74       0.000          0.6804E+06
   4920      1     61     75       0.000          0.6804E+06
   4921      1     61     76       0.000          0.6804E+06
   4922      1     61     77       0.000          0.6804E+06
   4923      1     61     78       0.000          0.6804E+06
   4924      1     61     79      0.3636E-02      0.6804E+06
   4925      1     61     80      0.3003E-01      0.6804E+06
   4926      1     61     81      0.5554E-01      0.6804E+06
   4927      1     61     82      0.7794E-01      0.6804E+06
   4928      1     61     83      0.9543E-01      0.6804E+06
   4929      1     61     84      0.1124          0.6804E+06
   4930      1     61     85      0.1255          0.6804E+06
   4931      1     61     86      0.1392          0.6804E+06
   4932      1     61     87      0.1499          0.6804E+06
   4933      1     61     88      0.1593          0.6804E+06
   4934      1     61     89      0.1704          0.6804E+06
   4935      1     61     90      0.1802          0.6804E+06
   4936      1     61     91      0.1875          0.6804E+06
   4937      1     61     92      0.1949          0.6804E+06
   4938      1     61     93      0.2007          0.6804E+06
   4939      1     61     94      0.2062          0.6804E+06
   4940      1     61     95      0.2114          0.6804E+06
   4941      1     61     96      0.2155          0.6804E+06
   4942      1     61     97      0.2193          0.6804E+06
   4943      1     61     98      0.2220          0.6804E+06
   4944      1     61     99      0.2241          0.6804E+06
   4945      1     61    100      0.2246          0.6804E+06
   4946      1     62      1      0.7240          0.6804E+06
   4947      1     62      2      0.6493          0.6804E+06
   4948      1     62      3      0.5830          0.6804E+06
   4949      1     62      4      0.5107          0.6804E+06
   4950      1     62      5      0.4463          0.6804E+06
   4951      1     62      6      0.3983          0.6804E+06
   4952      1     62      7      0.3567          0.6804E+06
   4953      1     62      8      0.3291          0.6804E+06
   4954      1     62      9      0.3119          0.6804E+06
   4955      1     62     10      0.2971          0.6804E+06
   4956      1     62     11      0.2883          0.6804E+06
   4957      1     62     12      0.2802          0.6804E+06
   4958      1     62     13      0.2656          0.6804E+06
   4959      1     62     14      0.2444          0.6804E+06
   4960      1     62     15      0.2195          0.6804E+06
   4961      1     62     16      0.2002          0.6804E+06
   4962      1     62     17      0.1834          0.6804E+06
   4963      1     62     18      0.1738          0.6804E+06
   4964      1     62     19      0.1698          0.6804E+06
   4965      1     62     20      0.1632          0.6804E+06
   4966      1     62     21      0.1495          0.6804E+06
   4967      1     62     22      0.1331          0.6804E+06
   4968      1     62     23      0.1147          0.6804E+06
   4969      1     62     24      0.1041          0.6804E+06
   4970      1     62     25      0.9581E-01      0.6804E+06
   4971      1     62     26      0.8906E-01      0.6804E+06
   4972      1     62     27      0.8189E-01      0.6804E+06
   4973      1     62     28      0.7195E-01      0.6804E+06
   4974      1     62     62       0.000          0.6804E+06
   4975      1     62     63       0.000          0.6804E+06
   4976      1     62     64       0.000          0.6804E+06
   4977      1     62     65       0.000          0.6804E+06
   4978      1     62     66       0.000          0.6804E+06
   4979      1     62     67       0.000          0.6804E+06
   4980      1     62     68       0.000          0.6804E+06
   4981      1     62     69       0.000          0.6804E+06
   4982      1     62     70       0.000          0.6804E+06
   4983      1     62     71       0.000          0.6804E+06
   4984      1     62     72       0.000          0.6804E+06
   4985      1     62     73       0.000          0.6804E+06
   4986      1     62     74       0.000          0.6804E+06
   4987      1     62     75       0.000          0.6804E+06
   4988      1     62     76       0.000          0.6804E+06
   4989      1     62     77       0.000          0.6804E+06
   4990      1     62     78       0.000          0.6804E+06
   4991      1     62     79      0.2687E-01      0.6804E+06
   4992      1     62     80      0.5086E-01      0.6804E+06
   4993      1     62     81      0.7451E-01      0.6804E+06
   4994      1     62     82      0.9576E-01      0.6804E+06
   4995      1     62     83      0.1131          0.6804E+06
   4996      1     62     84      0.1301          0.6804E+06
   4997      1     62     85      0.1434          0.6804E+06
   4998      1     62     86      0.1578          0.6804E+06
   4999      1     62     87      0.1699          0.6804E+06
   5000      1     62     88      0.1792          0.6804E+06
   5001      1     62     89      0.1893          0.6804E+06
   5002      1     62     90      0.1978          0.6804E+06
   5003      1     62     91      0.2042          0.6804E+06
   5004      1     62     92      0.2111          0.6804E+06
   5005      1     62     93      0.2166          0.6804E+06
   5006      1     62     94      0.2222          0.6804E+06
   5007      1     62     95      0.2277          0.6804E+06
   5008      1     62     96      0.2323          0.6804E+06
   5009      1     62     97      0.2367          0.6804E+06
   5010      1     62     98      0.2399          0.6804E+06
   5011      1     62     99      0.2420          0.6804E+06
   5012      1     62    100      0.2425          0.6804E+06
   5013      1     63      1      0.7647          0.6804E+06
   5014      1     63      2      0.6953          0.6804E+06
   5015      1     63      3      0.6322          0.6804E+06
   5016      1     63      4      0.5590          0.6804E+06
   5017      1     63      5      0.4875          0.6804E+06
   5018      1     63      6      0.4283          0.6804E+06
   5019      1     63      7      0.3718          0.6804E+06
   5020      1     63      8      0.3312          0.6804E+06
   5021      1     63      9      0.3063          0.6804E+06
   5022      1     63     10      0.2882          0.6804E+06
   5023      1     63     11      0.2781          0.6804E+06
   5024      1     63     12      0.2691          0.6804E+06
   5025      1     63     13      0.2554          0.6804E+06
   5026      1     63     14      0.2363          0.6804E+06
   5027      1     63     15      0.2153          0.6804E+06
   5028      1     63     16      0.2003          0.6804E+06
   5029      1     63     17      0.1874          0.6804E+06
   5030      1     63     18      0.1789          0.6804E+06
   5031      1     63     19      0.1732          0.6804E+06
   5032      1     63     20      0.1645          0.6804E+06
   5033      1     63     21      0.1499          0.6804E+06
   5034      1     63     22      0.1328          0.6804E+06
   5035      1     63     23      0.1128          0.6804E+06
   5036      1     63     24      0.9874E-01      0.6804E+06
   5037      1     63     25      0.8765E-01      0.6804E+06
   5038      1     63     26      0.8152E-01      0.6804E+06
   5039      1     63     27      0.7855E-01      0.6804E+06
   5040      1     63     28      0.7447E-01      0.6804E+06
   5041      1     63     29      0.6772E-01      0.6804E+06
   5042      1     63     62       0.000          0.6804E+06
   5043      1     63     63       0.000          0.6804E+06
   5044      1     63     64       0.000          0.6804E+06
   5045      1     63     65       0.000          0.6804E+06
   5046      1     63     66       0.000          0.6804E+06
   5047      1     63     67       0.000          0.6804E+06
   5048      1     63     68       0.000          0.6804E+06
   5049      1     63     69       0.000          0.6804E+06
   5050      1     63     70       0.000          0.6804E+06
   5051      1     63     71       0.000          0.6804E+06
   5052      1     63     72       0.000          0.6804E+06
   5053      1     63     73       0.000          0.6804E+06
   5054      1     63     74       0.000          0.6804E+06
   5055      1     63     75       0.000          0.6804E+06
   5056      1     63     76       0.000          0.6804E+06
   5057      1     63     77       0.000          0.6804E+06
   5058      1     63     78      0.3195E-01      0.6804E+06
   5059      1     63     79      0.5937E-01      0.6804E+06
   5060      1     63     80      0.7975E-01      0.6804E+06
   5061      1     63     81      0.1004          0.6804E+06
   5062      1     63     82      0.1196          0.6804E+06
   5063      1     63     83      0.1355          0.6804E+06
   5064      1     63     84      0.1520          0.6804E+06
   5065      1     63     85      0.1655          0.6804E+06
   5066      1     63     86      0.1807          0.6804E+06
   5067      1     63     87      0.1938          0.6804E+06
   5068      1     63     88      0.2029          0.6804E+06
   5069      1     63     89      0.2111          0.6804E+06
   5070      1     63     90      0.2174          0.6804E+06
   5071      1     63     91      0.2226          0.6804E+06
   5072      1     63     92      0.2287          0.6804E+06
   5073      1     63     93      0.2339          0.6804E+06
   5074      1     63     94      0.2395          0.6804E+06
   5075      1     63     95      0.2455          0.6804E+06
   5076      1     63     96      0.2505          0.6804E+06
   5077      1     63     97      0.2555          0.6804E+06
   5078      1     63     98      0.2592          0.6804E+06
   5079      1     63     99      0.2613          0.6804E+06
   5080      1     63    100      0.2618          0.6804E+06
   5081      1     64      1      0.8053          0.6804E+06
   5082      1     64      2      0.7400          0.6804E+06
   5083      1     64      3      0.6788          0.6804E+06
   5084      1     64      4      0.6036          0.6804E+06
   5085      1     64      5      0.5239          0.6804E+06
   5086      1     64      6      0.4526          0.6804E+06
   5087      1     64      7      0.3795          0.6804E+06
   5088      1     64      8      0.3251          0.6804E+06
   5089      1     64      9      0.2936          0.6804E+06
   5090      1     64     10      0.2744          0.6804E+06
   5091      1     64     11      0.2630          0.6804E+06
   5092      1     64     12      0.2510          0.6804E+06
   5093      1     64     13      0.2376          0.6804E+06
   5094      1     64     14      0.2234          0.6804E+06
   5095      1     64     15      0.2076          0.6804E+06
   5096      1     64     16      0.1967          0.6804E+06
   5097      1     64     17      0.1875          0.6804E+06
   5098      1     64     18      0.1814          0.6804E+06
   5099      1     64     19      0.1768          0.6804E+06
   5100      1     64     20      0.1680          0.6804E+06
   5101      1     64     21      0.1524          0.6804E+06
   5102      1     64     22      0.1333          0.6804E+06
   5103      1     64     23      0.1095          0.6804E+06
   5104      1     64     24      0.9132E-01      0.6804E+06
   5105      1     64     25      0.7684E-01      0.6804E+06
   5106      1     64     26      0.7106E-01      0.6804E+06
   5107      1     64     27      0.7188E-01      0.6804E+06
   5108      1     64     28      0.7394E-01      0.6804E+06
   5109      1     64     29      0.7391E-01      0.6804E+06
   5110      1     64     30      0.6714E-01      0.6804E+06
   5111      1     64     62       0.000          0.6804E+06
   5112      1     64     63       0.000          0.6804E+06
   5113      1     64     64       0.000          0.6804E+06
   5114      1     64     65       0.000          0.6804E+06
   5115      1     64     66       0.000          0.6804E+06
   5116      1     64     67       0.000          0.6804E+06
   5117      1     64     68       0.000          0.6804E+06
   5118      1     64     69       0.000          0.6804E+06
   5119      1     64     70       0.000          0.6804E+06
   5120      1     64     71       0.000          0.6804E+06
   5121      1     64     72       0.000          0.6804E+06
   5122      1     64     73       0.000          0.6804E+06
   5123      1     64     74       0.000          0.6804E+06
   5124      1     64     75       0.000          0.6804E+06
   5125      1     64     76      0.2230E-01      0.6804E+06
   5126      1     64     77      0.4549E-01      0.6804E+06
   5127      1     64     78      0.7268E-01      0.6804E+06
   5128      1     64     79      0.9491E-01      0.6804E+06
   5129      1     64     80      0.1114          0.6804E+06
   5130      1     64     81      0.1289          0.6804E+06
   5131      1     64     82      0.1457          0.6804E+06
   5132      1     64     83      0.1592          0.6804E+06
   5133      1     64     84      0.1739          0.6804E+06
   5134      1     64     85      0.1874          0.6804E+06
   5135      1     64     86      0.2027          0.6804E+06
   5136      1     64     87      0.2166          0.6804E+06
   5137      1     64     88      0.2251          0.6804E+06
   5138      1     64     89      0.2313          0.6804E+06
   5139      1     64     90      0.2360          0.6804E+06
   5140      1     64     91      0.2402          0.6804E+06
   5141      1     64     92      0.2454          0.6804E+06
   5142      1     64     93      0.2502          0.6804E+06
   5143      1     64     94      0.2557          0.6804E+06
   5144      1     64     95      0.2617          0.6804E+06
   5145      1     64     96      0.2668          0.6804E+06
   5146      1     64     97      0.2718          0.6804E+06
   5147      1     64     98      0.2755          0.6804E+06
   5148      1     64     99      0.2779          0.6804E+06
   5149      1     64    100      0.2789          0.6804E+06
   5150      1     65      1      0.8433          0.6804E+06
   5151      1     65      2      0.7804          0.6804E+06
   5152      1     65      3      0.7192          0.6804E+06
   5153      1     65      4      0.6415          0.6804E+06
   5154      1     65      5      0.5560          0.6804E+06
   5155      1     65      6      0.4755          0.6804E+06
   5156      1     65      7      0.3853          0.6804E+06
   5157      1     65      8      0.3184          0.6804E+06
   5158      1     65      9      0.2833          0.6804E+06
   5159      1     65     10      0.2655          0.6804E+06
   5160      1     65     11      0.2530          0.6804E+06
   5161      1     65     12      0.2388          0.6804E+06
   5162      1     65     13      0.2247          0.6804E+06
   5163      1     65     14      0.2122          0.6804E+06
   5164      1     65     15      0.1992          0.6804E+06
   5165      1     65     16      0.1906          0.6804E+06
   5166      1     65     17      0.1839          0.6804E+06
   5167      1     65     18      0.1807          0.6804E+06
   5168      1     65     19      0.1793          0.6804E+06
   5169      1     65     20      0.1725          0.6804E+06
   5170      1     65     21      0.1564          0.6804E+06
   5171      1     65     22      0.1344          0.6804E+06
   5172      1     65     23      0.1070          0.6804E+06
   5173      1     65     24      0.8469E-01      0.6804E+06
   5174      1     65     25      0.6673E-01      0.6804E+06
   5175      1     65     26      0.6113E-01      0.6804E+06
   5176      1     65     27      0.6565E-01      0.6804E+06
   5177      1     65     28      0.7254E-01      0.6804E+06
   5178      1     65     29      0.7758E-01      0.6804E+06
   5179      1     65     30      0.7604E-01      0.6804E+06
   5180      1     65     62       0.000          0.6804E+06
   5181      1     65     63       0.000          0.6804E+06
   5182      1     65     64       0.000          0.6804E+06
   5183      1     65     65       0.000          0.6804E+06
   5184      1     65     66       0.000          0.6804E+06
   5185      1     65     67       0.000          0.6804E+06
   5186      1     65     68       0.000          0.6804E+06
   5187      1     65     69       0.000          0.6804E+06
   5188      1     65     70       0.000          0.6804E+06
   5189      1     65     71       0.000          0.6804E+06
   5190      1     65     72       0.000          0.6804E+06
   5191      1     65     73       0.000          0.6804E+06
   5192      1     65     74       0.000          0.6804E+06
   5193      1     65     75      0.1949E-01      0.6804E+06
   5194      1     65     76      0.7660E-01      0.6804E+06
   5195      1     65     77      0.9054E-01      0.6804E+06
   5196      1     65     78      0.1097          0.6804E+06
   5197      1     65     79      0.1260          0.6804E+06
   5198      1     65     80      0.1387          0.6804E+06
   5199      1     65     81      0.1538          0.6804E+06
   5200      1     65     82      0.1687          0.6804E+06
   5201      1     65     83      0.1797          0.6804E+06
   5202      1     65     84      0.1924          0.6804E+06
   5203      1     65     85      0.2052          0.6804E+06
   5204      1     65     86      0.2200          0.6804E+06
   5205      1     65     87      0.2335          0.6804E+06
   5206      1     65     88      0.2415          0.6804E+06
   5207      1     65     89      0.2465          0.6804E+06
   5208      1     65     90      0.2506          0.6804E+06
   5209      1     65     91      0.2542          0.6804E+06
   5210      1     65     92      0.2589          0.6804E+06
   5211      1     65     93      0.2634          0.6804E+06
   5212      1     65     94      0.2688          0.6804E+06
   5213      1     65     95      0.2745          0.6804E+06
   5214      1     65     96      0.2797          0.6804E+06
   5215      1     65     97      0.2849          0.6804E+06
   5216      1     65     98      0.2884          0.6804E+06
   5217      1     65     99      0.2909          0.6804E+06
   5218      1     65    100      0.2919          0.6804E+06
   5219      1     66      1      0.8893          0.6804E+06
   5220      1     66      2      0.8288          0.6804E+06
   5221      1     66      3      0.7675          0.6804E+06
   5222      1     66      4      0.6887          0.6804E+06
   5223      1     66      5      0.6005          0.6804E+06
   5224      1     66      6      0.5151          0.6804E+06
   5225      1     66      7      0.4139          0.6804E+06
   5226      1     66      8      0.3369          0.6804E+06
   5227      1     66      9      0.2959          0.6804E+06
   5228      1     66     10      0.2720          0.6804E+06
   5229      1     66     11      0.2530          0.6804E+06
   5230      1     66     12      0.2326          0.6804E+06
   5231      1     66     13      0.2150          0.6804E+06
   5232      1     66     14      0.2025          0.6804E+06
   5233      1     66     15      0.1906          0.6804E+06
   5234      1     66     16      0.1828          0.6804E+06
   5235      1     66     17      0.1773          0.6804E+06
   5236      1     66     18      0.1770          0.6804E+06
   5237      1     66     19      0.1794          0.6804E+06
   5238      1     66     20      0.1761          0.6804E+06
   5239      1     66     21      0.1606          0.6804E+06
   5240      1     66     22      0.1362          0.6804E+06
   5241      1     66     23      0.1063          0.6804E+06
   5242      1     66     24      0.8042E-01      0.6804E+06
   5243      1     66     25      0.5877E-01      0.6804E+06
   5244      1     66     26      0.5290E-01      0.6804E+06
   5245      1     66     27      0.6109E-01      0.6804E+06
   5246      1     66     28      0.7134E-01      0.6804E+06
   5247      1     66     29      0.8049E-01      0.6804E+06
   5248      1     66     30      0.8453E-01      0.6804E+06
   5249      1     66     64       0.000          0.6804E+06
   5250      1     66     65       0.000          0.6804E+06
   5251      1     66     66       0.000          0.6804E+06
   5252      1     66     67       0.000          0.6804E+06
   5253      1     66     68       0.000          0.6804E+06
   5254      1     66     69       0.000          0.6804E+06
   5255      1     66     70       0.000          0.6804E+06
   5256      1     66     71       0.000          0.6804E+06
   5257      1     66     72       0.000          0.6804E+06
   5258      1     66     73       0.000          0.6804E+06
   5259      1     66     74      0.1345E-01      0.6804E+06
   5260      1     66     75      0.6491E-01      0.6804E+06
   5261      1     66     76      0.1138          0.6804E+06
   5262      1     66     77      0.1313          0.6804E+06
   5263      1     66     78      0.1469          0.6804E+06
   5264      1     66     79      0.1595          0.6804E+06
   5265      1     66     80      0.1696          0.6804E+06
   5266      1     66     81      0.1816          0.6804E+06
   5267      1     66     82      0.1930          0.6804E+06
   5268      1     66     83      0.2018          0.6804E+06
   5269      1     66     84      0.2123          0.6804E+06
   5270      1     66     85      0.2237          0.6804E+06
   5271      1     66     86      0.2367          0.6804E+06
   5272      1     66     87      0.2476          0.6804E+06
   5273      1     66     88      0.2547          0.6804E+06
   5274      1     66     89      0.2601          0.6804E+06
   5275      1     66     90      0.2645          0.6804E+06
   5276      1     66     91      0.2680          0.6804E+06
   5277      1     66     92      0.2724          0.6804E+06
   5278      1     66     93      0.2766          0.6804E+06
   5279      1     66     94      0.2818          0.6804E+06
   5280      1     66     95      0.2876          0.6804E+06
   5281      1     66     96      0.2929          0.6804E+06
   5282      1     66     97      0.2984          0.6804E+06
   5283      1     66     98      0.3019          0.6804E+06
   5284      1     66     99      0.3039          0.6804E+06
   5285      1     66    100      0.3045          0.6804E+06
   5286      1     67      1      0.9378          0.6804E+06
   5287      1     67      2      0.8798          0.6804E+06
   5288      1     67      3      0.8201          0.6804E+06
   5289      1     67      4      0.7431          0.6804E+06
   5290      1     67      5      0.6568          0.6804E+06
   5291      1     67      6      0.5729          0.6804E+06
   5292      1     67      7      0.4731          0.6804E+06
   5293      1     67      8      0.3918          0.6804E+06
   5294      1     67      9      0.3410          0.6804E+06
   5295      1     67     10      0.2998          0.6804E+06
   5296      1     67     11      0.2668          0.6804E+06
   5297      1     67     12      0.2348          0.6804E+06
   5298      1     67     13      0.2115          0.6804E+06
   5299      1     67     14      0.1983          0.6804E+06
   5300      1     67     15      0.1866          0.6804E+06
   5301      1     67     16      0.1779          0.6804E+06
   5302      1     67     17      0.1716          0.6804E+06
   5303      1     67     18      0.1729          0.6804E+06
   5304      1     67     19      0.1760          0.6804E+06
   5305      1     67     20      0.1729          0.6804E+06
   5306      1     67     21      0.1588          0.6804E+06
   5307      1     67     22      0.1373          0.6804E+06
   5308      1     67     23      0.1092          0.6804E+06
   5309      1     67     24      0.8535E-01      0.6804E+06
   5310      1     67     25      0.6494E-01      0.6804E+06
   5311      1     67     26      0.5779E-01      0.6804E+06
   5312      1     67     27      0.6287E-01      0.6804E+06
   5313      1     67     28      0.7176E-01      0.6804E+06
   5314      1     67     29      0.8205E-01      0.6804E+06
   5315      1     67     30      0.8959E-01      0.6804E+06
   5316      1     67     31      0.8928E-01      0.6804E+06
   5317      1     67     66       0.000          0.6804E+06
   5318      1     67     67       0.000          0.6804E+06
   5319      1     67     68       0.000          0.6804E+06
   5320      1     67     69       0.000          0.6804E+06
   5321      1     67     70       0.000          0.6804E+06
   5322      1     67     71       0.000          0.6804E+06
   5323      1     67     72       0.000          0.6804E+06
   5324      1     67     73      0.1480E-01      0.6804E+06
   5325      1     67     74      0.6347E-01      0.6804E+06
   5326      1     67     75      0.1037          0.6804E+06
   5327      1     67     76      0.1422          0.6804E+06
   5328      1     67     77      0.1633          0.6804E+06
   5329      1     67     78      0.1782          0.6804E+06
   5330      1     67     79      0.1892          0.6804E+06
   5331      1     67     80      0.1978          0.6804E+06
   5332      1     67     81      0.2072          0.6804E+06
   5333      1     67     82      0.2164          0.6804E+06
   5334      1     67     83      0.2231          0.6804E+06
   5335      1     67     84      0.2308          0.6804E+06
   5336      1     67     85      0.2400          0.6804E+06
   5337      1     67     86      0.2510          0.6804E+06
   5338      1     67     87      0.2601          0.6804E+06
   5339      1     67     88      0.2662          0.6804E+06
   5340      1     67     89      0.2714          0.6804E+06
   5341      1     67     90      0.2756          0.6804E+06
   5342      1     67     91      0.2790          0.6804E+06
   5343      1     67     92      0.2833          0.6804E+06
   5344      1     67     93      0.2874          0.6804E+06
   5345      1     67     94      0.2925          0.6804E+06
   5346      1     67     95      0.2982          0.6804E+06
   5347      1     67     96      0.3037          0.6804E+06
   5348      1     67     97      0.3095          0.6804E+06
   5349      1     67     98      0.3132          0.6804E+06
   5350      1     67     99      0.3144          0.6804E+06
   5351      1     67    100      0.3145          0.6804E+06
   5352      1     68      1      0.9804          0.6804E+06
   5353      1     68      2      0.9247          0.6804E+06
   5354      1     68      3      0.8686          0.6804E+06
   5355      1     68      4      0.7966          0.6804E+06
   5356      1     68      5      0.7156          0.6804E+06
   5357      1     68      6      0.6375          0.6804E+06
   5358      1     68      7      0.5474          0.6804E+06
   5359      1     68      8      0.4666          0.6804E+06
   5360      1     68      9      0.4044          0.6804E+06
   5361      1     68     10      0.3407          0.6804E+06
   5362      1     68     11      0.2907          0.6804E+06
   5363      1     68     12      0.2450          0.6804E+06
   5364      1     68     13      0.2151          0.6804E+06
   5365      1     68     14      0.2005          0.6804E+06
   5366      1     68     15      0.1885          0.6804E+06
   5367      1     68     16      0.1797          0.6804E+06
   5368      1     68     17      0.1732          0.6804E+06
   5369      1     68     18      0.1745          0.6804E+06
   5370      1     68     19      0.1764          0.6804E+06
   5371      1     68     20      0.1722          0.6804E+06
   5372      1     68     21      0.1587          0.6804E+06
   5373      1     68     22      0.1395          0.6804E+06
   5374      1     68     23      0.1139          0.6804E+06
   5375      1     68     24      0.9218E-01      0.6804E+06
   5376      1     68     25      0.7264E-01      0.6804E+06
   5377      1     68     26      0.6355E-01      0.6804E+06
   5378      1     68     27      0.6583E-01      0.6804E+06
   5379      1     68     28      0.7308E-01      0.6804E+06
   5380      1     68     29      0.8215E-01      0.6804E+06
   5381      1     68     30      0.8946E-01      0.6804E+06
   5382      1     68     68       0.000          0.6804E+06
   5383      1     68     69       0.000          0.6804E+06
   5384      1     68     70       0.000          0.6804E+06
   5385      1     68     71       0.000          0.6804E+06
   5386      1     68     72      0.2050E-01      0.6804E+06
   5387      1     68     73      0.5891E-01      0.6804E+06
   5388      1     68     74      0.1021          0.6804E+06
   5389      1     68     75      0.1364          0.6804E+06
   5390      1     68     76      0.1685          0.6804E+06
   5391      1     68     77      0.1877          0.6804E+06
   5392      1     68     78      0.2019          0.6804E+06
   5393      1     68     79      0.2123          0.6804E+06
   5394      1     68     80      0.2198          0.6804E+06
   5395      1     68     81      0.2275          0.6804E+06
   5396      1     68     82      0.2350          0.6804E+06
   5397      1     68     83      0.2402          0.6804E+06
   5398      1     68     84      0.2459          0.6804E+06
   5399      1     68     85      0.2531          0.6804E+06
   5400      1     68     86      0.2623          0.6804E+06
   5401      1     68     87      0.2701          0.6804E+06
   5402      1     68     88      0.2754          0.6804E+06
   5403      1     68     89      0.2797          0.6804E+06
   5404      1     68     90      0.2836          0.6804E+06
   5405      1     68     91      0.2869          0.6804E+06
   5406      1     68     92      0.2909          0.6804E+06
   5407      1     68     93      0.2948          0.6804E+06
   5408      1     68     94      0.2997          0.6804E+06
   5409      1     68     95      0.3052          0.6804E+06
   5410      1     68     96      0.3103          0.6804E+06
   5411      1     68     97      0.3156          0.6804E+06
   5412      1     68     98      0.3190          0.6804E+06
   5413      1     68     99      0.3204          0.6804E+06
   5414      1     68    100      0.3206          0.6804E+06
   5415      1     69      1       1.019          0.6804E+06
   5416      1     69      2      0.9688          0.6804E+06
   5417      1     69      3      0.9209          0.6804E+06
   5418      1     69      4      0.8591          0.6804E+06
   5419      1     69      5      0.7854          0.6804E+06
   5420      1     69      6      0.7143          0.6804E+06
   5421      1     69      7      0.6333          0.6804E+06
   5422      1     69      8      0.5542          0.6804E+06
   5423      1     69      9      0.4827          0.6804E+06
   5424      1     69     10      0.3975          0.6804E+06
   5425      1     69     11      0.3301          0.6804E+06
   5426      1     69     12      0.2690          0.6804E+06
   5427      1     69     13      0.2299          0.6804E+06
   5428      1     69     14      0.2118          0.6804E+06
   5429      1     69     15      0.1989          0.6804E+06
   5430      1     69     16      0.1910          0.6804E+06
   5431      1     69     17      0.1856          0.6804E+06
   5432      1     69     18      0.1847          0.6804E+06
   5433      1     69     19      0.1841          0.6804E+06
   5434      1     69     20      0.1779          0.6804E+06
   5435      1     69     21      0.1637          0.6804E+06
   5436      1     69     22      0.1446          0.6804E+06
   5437      1     69     23      0.1205          0.6804E+06
   5438      1     69     24      0.1003          0.6804E+06
   5439      1     69     25      0.8040E-01      0.6804E+06
   5440      1     69     26      0.6800E-01      0.6804E+06
   5441      1     69     27      0.6869E-01      0.6804E+06
   5442      1     69     28      0.7510E-01      0.6804E+06
   5443      1     69     29      0.8276E-01      0.6804E+06
   5444      1     69     30      0.8854E-01      0.6804E+06
   5445      1     69     70      0.2206E-01      0.6804E+06
   5446      1     69     71      0.4476E-01      0.6804E+06
   5447      1     69     72      0.7024E-01      0.6804E+06
   5448      1     69     73      0.1049          0.6804E+06
   5449      1     69     74      0.1407          0.6804E+06
   5450      1     69     75      0.1691          0.6804E+06
   5451      1     69     76      0.1961          0.6804E+06
   5452      1     69     77      0.2139          0.6804E+06
   5453      1     69     78      0.2266          0.6804E+06
   5454      1     69     79      0.2356          0.6804E+06
   5455      1     69     80      0.2419          0.6804E+06
   5456      1     69     81      0.2478          0.6804E+06
   5457      1     69     82      0.2529          0.6804E+06
   5458      1     69     83      0.2568          0.6804E+06
   5459      1     69     84      0.2613          0.6804E+06
   5460      1     69     85      0.2668          0.6804E+06
   5461      1     69     86      0.2738          0.6804E+06
   5462      1     69     87      0.2799          0.6804E+06
   5463      1     69     88      0.2842          0.6804E+06
   5464      1     69     89      0.2875          0.6804E+06
   5465      1     69     90      0.2910          0.6804E+06
   5466      1     69     91      0.2939          0.6804E+06
   5467      1     69     92      0.2977          0.6804E+06
   5468      1     69     93      0.3013          0.6804E+06
   5469      1     69     94      0.3057          0.6804E+06
   5470      1     69     95      0.3107          0.6804E+06
   5471      1     69     96      0.3151          0.6804E+06
   5472      1     69     97      0.3197          0.6804E+06
   5473      1     69     98      0.3226          0.6804E+06
   5474      1     69     99      0.3242          0.6804E+06
   5475      1     69    100      0.3248          0.6804E+06
   5476      1     70      1       1.039          0.6804E+06
   5477      1     70      2      0.9961          0.6804E+06
   5478      1     70      3      0.9560          0.6804E+06
   5479      1     70      4      0.9038          0.6804E+06
   5480      1     70      5      0.8388          0.6804E+06
   5481      1     70      6      0.7754          0.6804E+06
   5482      1     70      7      0.7007          0.6804E+06
   5483      1     70      8      0.6222          0.6804E+06
   5484      1     70      9      0.5448          0.6804E+06
   5485      1     70     10      0.4475          0.6804E+06
   5486      1     70     11      0.3687          0.6804E+06
   5487      1     70     12      0.2960          0.6804E+06
   5488      1     70     13      0.2494          0.6804E+06
   5489      1     70     14      0.2283          0.6804E+06
   5490      1     70     15      0.2144          0.6804E+06
   5491      1     70     16      0.2064          0.6804E+06
   5492      1     70     17      0.2007          0.6804E+06
   5493      1     70     18      0.1982          0.6804E+06
   5494      1     70     19      0.1961          0.6804E+06
   5495      1     70     20      0.1884          0.6804E+06
   5496      1     70     21      0.1725          0.6804E+06
   5497      1     70     22      0.1517          0.6804E+06
   5498      1     70     23      0.1269          0.6804E+06
   5499      1     70     24      0.1067          0.6804E+06
   5500      1     70     25      0.8626E-01      0.6804E+06
   5501      1     70     26      0.7133E-01      0.6804E+06
   5502      1     70     27      0.7160E-01      0.6804E+06
   5503      1     70     28      0.7754E-01      0.6804E+06
   5504      1     70     29      0.8380E-01      0.6804E+06
   5505      1     70     30      0.8768E-01      0.6804E+06
   5506      1     70     72      0.1065          0.6804E+06
   5507      1     70     73      0.1390          0.6804E+06
   5508      1     70     74      0.1710          0.6804E+06
   5509      1     70     75      0.1963          0.6804E+06
   5510      1     70     76      0.2208          0.6804E+06
   5511      1     70     77      0.2365          0.6804E+06
   5512      1     70     78      0.2472          0.6804E+06
   5513      1     70     79      0.2544          0.6804E+06
   5514      1     70     80      0.2592          0.6804E+06
   5515      1     70     81      0.2632          0.6804E+06
   5516      1     70     82      0.2654          0.6804E+06
   5517      1     70     83      0.2680          0.6804E+06
   5518      1     70     84      0.2721          0.6804E+06
   5519      1     70     85      0.2763          0.6804E+06
   5520      1     70     86      0.2816          0.6804E+06
   5521      1     70     87      0.2863          0.6804E+06
   5522      1     70     88      0.2897          0.6804E+06
   5523      1     70     89      0.2926          0.6804E+06
   5524      1     70     90      0.2956          0.6804E+06
   5525      1     70     91      0.2985          0.6804E+06
   5526      1     70     92      0.3021          0.6804E+06
   5527      1     70     93      0.3053          0.6804E+06
   5528      1     70     94      0.3094          0.6804E+06
   5529      1     70     95      0.3138          0.6804E+06
   5530      1     70     96      0.3177          0.6804E+06
   5531      1     70     97      0.3216          0.6804E+06
   5532      1     70     98      0.3241          0.6804E+06
   5533      1     70     99      0.3260          0.6804E+06
   5534      1     70    100      0.3269          0.6804E+06
   5535      1     71      1       1.044          0.6804E+06
   5536      1     71      2       1.012          0.6804E+06
   5537      1     71      3      0.9810          0.6804E+06
   5538      1     71      4      0.9393          0.6804E+06
   5539      1     71      5      0.8874          0.6804E+06
   5540      1     71      6      0.8357          0.6804E+06
   5541      1     71      7      0.7698          0.6804E+06
   5542      1     71      8      0.6933          0.6804E+06
   5543      1     71      9      0.6115          0.6804E+06
   5544      1     71     10      0.5047          0.6804E+06
   5545      1     71     11      0.4131          0.6804E+06
   5546      1     71     12      0.3265          0.6804E+06
   5547      1     71     13      0.2751          0.6804E+06
   5548      1     71     14      0.2534          0.6804E+06
   5549      1     71     15      0.2384          0.6804E+06
   5550      1     71     16      0.2288          0.6804E+06
   5551      1     71     17      0.2208          0.6804E+06
   5552      1     71     18      0.2147          0.6804E+06
   5553      1     71     19      0.2103          0.6804E+06
   5554      1     71     20      0.2004          0.6804E+06
   5555      1     71     21      0.1819          0.6804E+06
   5556      1     71     22      0.1587          0.6804E+06
   5557      1     71     23      0.1336          0.6804E+06
   5558      1     71     24      0.1141          0.6804E+06
   5559      1     71     25      0.9519E-01      0.6804E+06
   5560      1     71     26      0.8224E-01      0.6804E+06
   5561      1     71     27      0.7984E-01      0.6804E+06
   5562      1     71     28      0.8187E-01      0.6804E+06
   5563      1     71     29      0.8450E-01      0.6804E+06
   5564      1     71     30      0.8545E-01      0.6804E+06
   5565      1     71     74      0.2032          0.6804E+06
   5566      1     71     75      0.2267          0.6804E+06
   5567      1     71     76      0.2487          0.6804E+06
   5568      1     71     77      0.2610          0.6804E+06
   5569      1     71     78      0.2689          0.6804E+06
   5570      1     71     79      0.2737          0.6804E+06
   5571      1     71     80      0.2767          0.6804E+06
   5572      1     71     81      0.2788          0.6804E+06
   5573      1     71     82      0.2788          0.6804E+06
   5574      1     71     83      0.2797          0.6804E+06
   5575      1     71     84      0.2822          0.6804E+06
   5576      1     71     85      0.2846          0.6804E+06
   5577      1     71     86      0.2880          0.6804E+06
   5578      1     71     87      0.2912          0.6804E+06
   5579      1     71     88      0.2935          0.6804E+06
   5580      1     71     89      0.2961          0.6804E+06
   5581      1     71     90      0.2989          0.6804E+06
   5582      1     71     91      0.3017          0.6804E+06
   5583      1     71     92      0.3053          0.6804E+06
   5584      1     71     93      0.3083          0.6804E+06
   5585      1     71     94      0.3120          0.6804E+06
   5586      1     71     95      0.3160          0.6804E+06
   5587      1     71     96      0.3194          0.6804E+06
   5588      1     71     97      0.3226          0.6804E+06
   5589      1     71     98      0.3249          0.6804E+06
   5590      1     71     99      0.3268          0.6804E+06
   5591      1     71    100      0.3278          0.6804E+06
   5592      1     72      1       1.041          0.6804E+06
   5593      1     72      2       1.017          0.6804E+06
   5594      1     72      3      0.9919          0.6804E+06
   5595      1     72      4      0.9595          0.6804E+06
   5596      1     72      5      0.9222          0.6804E+06
   5597      1     72      6      0.8850          0.6804E+06
   5598      1     72      7      0.8329          0.6804E+06
   5599      1     72      8      0.7633          0.6804E+06
   5600      1     72      9      0.6782          0.6804E+06
   5601      1     72     10      0.5649          0.6804E+06
   5602      1     72     11      0.4641          0.6804E+06
   5603      1     72     12      0.3678          0.6804E+06
   5604      1     72     13      0.3126          0.6804E+06
   5605      1     72     14      0.2887          0.6804E+06
   5606      1     72     15      0.2699          0.6804E+06
   5607      1     72     16      0.2557          0.6804E+06
   5608      1     72     17      0.2422          0.6804E+06
   5609      1     72     18      0.2301          0.6804E+06
   5610      1     72     19      0.2203          0.6804E+06
   5611      1     72     20      0.2058          0.6804E+06
   5612      1     72     21      0.1849          0.6804E+06
   5613      1     72     22      0.1623          0.6804E+06
   5614      1     72     23      0.1385          0.6804E+06
   5615      1     72     24      0.1200          0.6804E+06
   5616      1     72     25      0.1024          0.6804E+06
   5617      1     72     26      0.9081E-01      0.6804E+06
   5618      1     72     27      0.8636E-01      0.6804E+06
   5619      1     72     28      0.8408E-01      0.6804E+06
   5620      1     72     29      0.8199E-01      0.6804E+06
   5621      1     72     30      0.7946E-01      0.6804E+06
   5622      1     72     31      0.8053E-01      0.6804E+06
   5623      1     72     76      0.2759          0.6804E+06
   5624      1     72     77      0.2839          0.6804E+06
   5625      1     72     78      0.2884          0.6804E+06
   5626      1     72     79      0.2909          0.6804E+06
   5627      1     72     80      0.2920          0.6804E+06
   5628      1     72     81      0.2922          0.6804E+06
   5629      1     72     82      0.2904          0.6804E+06
   5630      1     72     83      0.2896          0.6804E+06
   5631      1     72     84      0.2901          0.6804E+06
   5632      1     72     85      0.2908          0.6804E+06
   5633      1     72     86      0.2924          0.6804E+06
   5634      1     72     87      0.2942          0.6804E+06
   5635      1     72     88      0.2959          0.6804E+06
   5636      1     72     89      0.2982          0.6804E+06
   5637      1     72     90      0.3009          0.6804E+06
   5638      1     72     91      0.3037          0.6804E+06
   5639      1     72     92      0.3072          0.6804E+06
   5640      1     72     93      0.3101          0.6804E+06
   5641      1     72     94      0.3135          0.6804E+06
   5642      1     72     95      0.3171          0.6804E+06
   5643      1     72     96      0.3201          0.6804E+06
   5644      1     72     97      0.3230          0.6804E+06
   5645      1     72     98      0.3250          0.6804E+06
   5646      1     72     99      0.3267          0.6804E+06
   5647      1     72    100      0.3278          0.6804E+06
   5648      1     73      1       1.035          0.6804E+06
   5649      1     73      2       1.015          0.6804E+06
   5650      1     73      3      0.9945          0.6804E+06
   5651      1     73      4      0.9694          0.6804E+06
   5652      1     73      5      0.9434          0.6804E+06
   5653      1     73      6      0.9195          0.6804E+06
   5654      1     73      7      0.8851          0.6804E+06
   5655      1     73      8      0.8276          0.6804E+06
   5656      1     73      9      0.7387          0.6804E+06
   5657      1     73     10      0.6230          0.6804E+06
   5658      1     73     11      0.5239          0.6804E+06
   5659      1     73     12      0.4279          0.6804E+06
   5660      1     73     13      0.3649          0.6804E+06
   5661      1     73     14      0.3318          0.6804E+06
   5662      1     73     15      0.3039          0.6804E+06
   5663      1     73     16      0.2827          0.6804E+06
   5664      1     73     17      0.2617          0.6804E+06
   5665      1     73     18      0.2429          0.6804E+06
   5666      1     73     19      0.2268          0.6804E+06
   5667      1     73     20      0.2069          0.6804E+06
   5668      1     73     21      0.1843          0.6804E+06
   5669      1     73     22      0.1636          0.6804E+06
   5670      1     73     23      0.1416          0.6804E+06
   5671      1     73     24      0.1243          0.6804E+06
   5672      1     73     25      0.1073          0.6804E+06
   5673      1     73     26      0.9514E-01      0.6804E+06
   5674      1     73     27      0.8796E-01      0.6804E+06
   5675      1     73     28      0.8118E-01      0.6804E+06
   5676      1     73     29      0.7485E-01      0.6804E+06
   5677      1     73     30      0.6983E-01      0.6804E+06
   5678      1     73     31      0.6996E-01      0.6804E+06
   5679      1     73     32      0.7190E-01      0.6804E+06
   5680      1     73     78      0.3037          0.6804E+06
   5681      1     73     79      0.3039          0.6804E+06
   5682      1     73     80      0.3034          0.6804E+06
   5683      1     73     81      0.3019          0.6804E+06
   5684      1     73     82      0.2989          0.6804E+06
   5685      1     73     83      0.2967          0.6804E+06
   5686      1     73     84      0.2956          0.6804E+06
   5687      1     73     85      0.2948          0.6804E+06
   5688      1     73     86      0.2950          0.6804E+06
   5689      1     73     87      0.2958          0.6804E+06
   5690      1     73     88      0.2970          0.6804E+06
   5691      1     73     89      0.2991          0.6804E+06
   5692      1     73     90      0.3017          0.6804E+06
   5693      1     73     91      0.3045          0.6804E+06
   5694      1     73     92      0.3080          0.6804E+06
   5695      1     73     93      0.3108          0.6804E+06
   5696      1     73     94      0.3140          0.6804E+06
   5697      1     73     95      0.3174          0.6804E+06
   5698      1     73     96      0.3201          0.6804E+06
   5699      1     73     97      0.3227          0.6804E+06
   5700      1     73     98      0.3246          0.6804E+06
   5701      1     73     99      0.3262          0.6804E+06
   5702      1     73    100      0.3273          0.6804E+06
   5703      1     74      1       1.026          0.6804E+06
   5704      1     74      2       1.008          0.6804E+06
   5705      1     74      3      0.9908          0.6804E+06
   5706      1     74      4      0.9715          0.6804E+06
   5707      1     74      5      0.9550          0.6804E+06
   5708      1     74      6      0.9410          0.6804E+06
   5709      1     74      7      0.9176          0.6804E+06
   5710      1     74      8      0.8699          0.6804E+06
   5711      1     74      9      0.7894          0.6804E+06
   5712      1     74     10      0.6835          0.6804E+06
   5713      1     74     11      0.5932          0.6804E+06
   5714      1     74     12      0.5029          0.6804E+06
   5715      1     74     13      0.4336          0.6804E+06
   5716      1     74     14      0.3892          0.6804E+06
   5717      1     74     15      0.3487          0.6804E+06
   5718      1     74     16      0.3174          0.6804E+06
   5719      1     74     17      0.2861          0.6804E+06
   5720      1     74     18      0.2591          0.6804E+06
   5721      1     74     19      0.2364          0.6804E+06
   5722      1     74     20      0.2106          0.6804E+06
   5723      1     74     21      0.1852          0.6804E+06
   5724      1     74     22      0.1656          0.6804E+06
   5725      1     74     23      0.1452          0.6804E+06
   5726      1     74     24      0.1289          0.6804E+06
   5727      1     74     25      0.1121          0.6804E+06
   5728      1     74     26      0.9792E-01      0.6804E+06
   5729      1     74     27      0.8700E-01      0.6804E+06
   5730      1     74     28      0.7528E-01      0.6804E+06
   5731      1     74     29      0.6438E-01      0.6804E+06
   5732      1     74     30      0.5653E-01      0.6804E+06
   5733      1     74     31      0.5697E-01      0.6804E+06
   5734      1     74     32      0.6116E-01      0.6804E+06
   5735      1     74     33      0.6568E-01      0.6804E+06
   5736      1     74     80      0.3134          0.6804E+06
   5737      1     74     81      0.3107          0.6804E+06
   5738      1     74     82      0.3066          0.6804E+06
   5739      1     74     83      0.3032          0.6804E+06
   5740      1     74     84      0.3003          0.6804E+06
   5741      1     74     85      0.2981          0.6804E+06
   5742      1     74     86      0.2966          0.6804E+06
   5743      1     74     87      0.2962          0.6804E+06
   5744      1     74     88      0.2971          0.6804E+06
   5745      1     74     89      0.2991          0.6804E+06
   5746      1     74     90      0.3018          0.6804E+06
   5747      1     74     91      0.3047          0.6804E+06
   5748      1     74     92      0.3082          0.6804E+06
   5749      1     74     93      0.3111          0.6804E+06
   5750      1     74     94      0.3142          0.6804E+06
   5751      1     74     95      0.3172          0.6804E+06
   5752      1     74     96      0.3197          0.6804E+06
   5753      1     74     97      0.3220          0.6804E+06
   5754      1     74     98      0.3237          0.6804E+06
   5755      1     74     99      0.3252          0.6804E+06
   5756      1     74    100      0.3263          0.6804E+06
   5757      1     75      1       1.016          0.6804E+06
   5758      1     75      2      0.9983          0.6804E+06
   5759      1     75      3      0.9817          0.6804E+06
   5760      1     75      4      0.9645          0.6804E+06
   5761      1     75      5      0.9552          0.6804E+06
   5762      1     75      6      0.9469          0.6804E+06
   5763      1     75      7      0.9281          0.6804E+06
   5764      1     75      8      0.8868          0.6804E+06
   5765      1     75      9      0.8213          0.6804E+06
   5766      1     75     10      0.7319          0.6804E+06
   5767      1     75     11      0.6532          0.6804E+06
   5768      1     75     12      0.5702          0.6804E+06
   5769      1     75     13      0.4986          0.6804E+06
   5770      1     75     14      0.4465          0.6804E+06
   5771      1     75     15      0.3956          0.6804E+06
   5772      1     75     16      0.3550          0.6804E+06
   5773      1     75     17      0.3131          0.6804E+06
   5774      1     75     18      0.2790          0.6804E+06
   5775      1     75     19      0.2512          0.6804E+06
   5776      1     75     20      0.2205          0.6804E+06
   5777      1     75     21      0.1922          0.6804E+06
   5778      1     75     22      0.1718          0.6804E+06
   5779      1     75     23      0.1510          0.6804E+06
   5780      1     75     24      0.1344          0.6804E+06
   5781      1     75     25      0.1171          0.6804E+06
   5782      1     75     26      0.1013          0.6804E+06
   5783      1     75     27      0.8772E-01      0.6804E+06
   5784      1     75     28      0.7226E-01      0.6804E+06
   5785      1     75     29      0.5739E-01      0.6804E+06
   5786      1     75     30      0.4658E-01      0.6804E+06
   5787      1     75     31      0.4732E-01      0.6804E+06
   5788      1     75     32      0.5269E-01      0.6804E+06
   5789      1     75     33      0.5864E-01      0.6804E+06
   5790      1     75     34      0.6090E-01      0.6804E+06
   5791      1     75     35      0.5981E-01      0.6804E+06
   5792      1     75     36      0.5356E-01      0.6804E+06
   5793      1     75     37      0.4033E-01      0.6804E+06
   5794      1     75     38      0.2141E-01      0.6804E+06
   5795      1     75     39     -0.4928E-02      0.6804E+06
   5796      1     75     40     -0.4860E-01      0.6804E+06
   5797      1     75     82      0.3118          0.6804E+06
   5798      1     75     83      0.3075          0.6804E+06
   5799      1     75     84      0.3034          0.6804E+06
   5800      1     75     85      0.3000          0.6804E+06
   5801      1     75     86      0.2970          0.6804E+06
   5802      1     75     87      0.2954          0.6804E+06
   5803      1     75     88      0.2959          0.6804E+06
   5804      1     75     89      0.2979          0.6804E+06
   5805      1     75     90      0.3010          0.6804E+06
   5806      1     75     91      0.3042          0.6804E+06
   5807      1     75     92      0.3080          0.6804E+06
   5808      1     75     93      0.3110          0.6804E+06
   5809      1     75     94      0.3141          0.6804E+06
   5810      1     75     95      0.3169          0.6804E+06
   5811      1     75     96      0.3190          0.6804E+06
   5812      1     75     97      0.3210          0.6804E+06
   5813      1     75     98      0.3225          0.6804E+06
   5814      1     75     99      0.3240          0.6804E+06
   5815      1     75    100      0.3251          0.6804E+06
   5816      1     76      1       1.008          0.6804E+06
   5817      1     76      2      0.9897          0.6804E+06
   5818      1     76      3      0.9721          0.6804E+06
   5819      1     76      4      0.9540          0.6804E+06
   5820      1     76      5      0.9498          0.6804E+06
   5821      1     76      6      0.9446          0.6804E+06
   5822      1     76      7      0.9283          0.6804E+06
   5823      1     76      8      0.8926          0.6804E+06
   5824      1     76      9      0.8398          0.6804E+06
   5825      1     76     10      0.7654          0.6804E+06
   5826      1     76     11      0.6969          0.6804E+06
   5827      1     76     12      0.6210          0.6804E+06
   5828      1     76     13      0.5498          0.6804E+06
   5829      1     76     14      0.4940          0.6804E+06
   5830      1     76     15      0.4369          0.6804E+06
   5831      1     76     16      0.3905          0.6804E+06
   5832      1     76     17      0.3418          0.6804E+06
   5833      1     76     18      0.3015          0.6804E+06
   5834      1     76     19      0.2689          0.6804E+06
   5835      1     76     20      0.2341          0.6804E+06
   5836      1     76     21      0.2034          0.6804E+06
   5837      1     76     22      0.1810          0.6804E+06
   5838      1     76     23      0.1586          0.6804E+06
   5839      1     76     24      0.1410          0.6804E+06
   5840      1     76     25      0.1227          0.6804E+06
   5841      1     76     26      0.1048          0.6804E+06
   5842      1     76     27      0.9022E-01      0.6804E+06
   5843      1     76     28      0.7400E-01      0.6804E+06
   5844      1     76     29      0.5855E-01      0.6804E+06
   5845      1     76     30      0.4888E-01      0.6804E+06
   5846      1     76     31      0.4634E-01      0.6804E+06
   5847      1     76     32      0.4826E-01      0.6804E+06
   5848      1     76     33      0.5256E-01      0.6804E+06
   5849      1     76     34      0.5650E-01      0.6804E+06
   5850      1     76     35      0.5869E-01      0.6804E+06
   5851      1     76     36      0.5778E-01      0.6804E+06
   5852      1     76     37      0.5154E-01      0.6804E+06
   5853      1     76     38      0.4008E-01      0.6804E+06
   5854      1     76     39      0.1864E-01      0.6804E+06
   5855      1     76     40     -0.8048E-02      0.6804E+06
   5856      1     76     41     -0.6197E-01      0.6804E+06
   5857      1     76     42     -0.1574          0.6804E+06
   5858      1     76     43     -0.2362          0.6804E+06
   5859      1     76     44     -0.2399          0.6804E+06
   5860      1     76     45     -0.2224          0.6804E+06
   5861      1     76     46     -0.1938          0.6804E+06
   5862      1     76     47     -0.1576          0.6804E+06
   5863      1     76     48     -0.1292          0.6804E+06
   5864      1     76     49     -0.9142E-01      0.6804E+06
   5865      1     76     50     -0.8323E-01      0.6804E+06
   5866      1     76     51     -0.7015E-01      0.6804E+06
   5867      1     76     52     -0.8705E-01      0.6804E+06
   5868      1     76     53     -0.9422E-01      0.6804E+06
   5869      1     76     54     -0.6810E-01      0.6804E+06
   5870      1     76     55     -0.5578E-01      0.6804E+06
   5871      1     76     83      0.3105          0.6804E+06
   5872      1     76     84      0.3053          0.6804E+06
   5873      1     76     85      0.3009          0.6804E+06
   5874      1     76     86      0.2964          0.6804E+06
   5875      1     76     87      0.2937          0.6804E+06
   5876      1     76     88      0.2939          0.6804E+06
   5877      1     76     89      0.2966          0.6804E+06
   5878      1     76     90      0.3003          0.6804E+06
   5879      1     76     91      0.3038          0.6804E+06
   5880      1     76     92      0.3079          0.6804E+06
   5881      1     76     93      0.3109          0.6804E+06
   5882      1     76     94      0.3140          0.6804E+06
   5883      1     76     95      0.3165          0.6804E+06
   5884      1     76     96      0.3184          0.6804E+06
   5885      1     76     97      0.3200          0.6804E+06
   5886      1     76     98      0.3214          0.6804E+06
   5887      1     76     99      0.3228          0.6804E+06
   5888      1     76    100      0.3241          0.6804E+06
   5889      1     77      1       1.001          0.6804E+06
   5890      1     77      2      0.9839          0.6804E+06
   5891      1     77      3      0.9683          0.6804E+06
   5892      1     77      4      0.9532          0.6804E+06
   5893      1     77      5      0.9484          0.6804E+06
   5894      1     77      6      0.9436          0.6804E+06
   5895      1     77      7      0.9310          0.6804E+06
   5896      1     77      8      0.9031          0.6804E+06
   5897      1     77      9      0.8591          0.6804E+06
   5898      1     77     10      0.7963          0.6804E+06
   5899      1     77     11      0.7374          0.6804E+06
   5900      1     77     12      0.6697          0.6804E+06
   5901      1     77     13      0.6008          0.6804E+06
   5902      1     77     14      0.5437          0.6804E+06
   5903      1     77     15      0.4831          0.6804E+06
   5904      1     77     16      0.4330          0.6804E+06
   5905      1     77     17      0.3796          0.6804E+06
   5906      1     77     18      0.3320          0.6804E+06
   5907      1     77     19      0.2933          0.6804E+06
   5908      1     77     20      0.2531          0.6804E+06
   5909      1     77     21      0.2191          0.6804E+06
   5910      1     77     22      0.1943          0.6804E+06
   5911      1     77     23      0.1700          0.6804E+06
   5912      1     77     24      0.1513          0.6804E+06
   5913      1     77     25      0.1318          0.6804E+06
   5914      1     77     26      0.1117          0.6804E+06
   5915      1     77     27      0.9592E-01      0.6804E+06
   5916      1     77     28      0.7905E-01      0.6804E+06
   5917      1     77     29      0.6318E-01      0.6804E+06
   5918      1     77     30      0.5343E-01      0.6804E+06
   5919      1     77     31      0.4698E-01      0.6804E+06
   5920      1     77     32      0.4501E-01      0.6804E+06
   5921      1     77     33      0.4714E-01      0.6804E+06
   5922      1     77     34      0.5264E-01      0.6804E+06
   5923      1     77     35      0.5666E-01      0.6804E+06
   5924      1     77     36      0.5944E-01      0.6804E+06
   5925      1     77     37      0.5884E-01      0.6804E+06
   5926      1     77     38      0.5307E-01      0.6804E+06
   5927      1     77     39      0.3792E-01      0.6804E+06
   5928      1     77     40      0.1553E-01      0.6804E+06
   5929      1     77     41     -0.1409E-01      0.6804E+06
   5930      1     77     42     -0.6773E-01      0.6804E+06
   5931      1     77     43     -0.1318          0.6804E+06
   5932      1     77     44     -0.2024          0.6804E+06
   5933      1     77     45     -0.2205          0.6804E+06
   5934      1     77     46     -0.1914          0.6804E+06
   5935      1     77     47     -0.1720          0.6804E+06
   5936      1     77     48     -0.1567          0.6804E+06
   5937      1     77     49     -0.1345          0.6804E+06
   5938      1     77     50     -0.1181          0.6804E+06
   5939      1     77     51     -0.1069          0.6804E+06
   5940      1     77     52     -0.1091          0.6804E+06
   5941      1     77     53     -0.1079          0.6804E+06
   5942      1     77     54     -0.9501E-01      0.6804E+06
   5943      1     77     55     -0.1144          0.6804E+06
   5944      1     77     56     -0.9585E-01      0.6804E+06
   5945      1     77     57     -0.3554E-01      0.6804E+06
   5946      1     77     58      0.9135E-02      0.6804E+06
   5947      1     77     59      0.2871E-01      0.6804E+06
   5948      1     77     60      0.4551E-01      0.6804E+06
   5949      1     77     61      0.5443E-01      0.6804E+06
   5950      1     77     62      0.6121E-01      0.6804E+06
   5951      1     77     63      0.6980E-01      0.6804E+06
   5952      1     77     84      0.3073          0.6804E+06
   5953      1     77     85      0.3018          0.6804E+06
   5954      1     77     86      0.2957          0.6804E+06
   5955      1     77     87      0.2917          0.6804E+06
   5956      1     77     88      0.2919          0.6804E+06
   5957      1     77     89      0.2956          0.6804E+06
   5958      1     77     90      0.3000          0.6804E+06
   5959      1     77     91      0.3039          0.6804E+06
   5960      1     77     92      0.3081          0.6804E+06
   5961      1     77     93      0.3112          0.6804E+06
   5962      1     77     94      0.3141          0.6804E+06
   5963      1     77     95      0.3165          0.6804E+06
   5964      1     77     96      0.3179          0.6804E+06
   5965      1     77     97      0.3191          0.6804E+06
   5966      1     77     98      0.3202          0.6804E+06
   5967      1     77     99      0.3217          0.6804E+06
   5968      1     77    100      0.3232          0.6804E+06
   5969      1     78      1      0.9966          0.6804E+06
   5970      1     78      2      0.9815          0.6804E+06
   5971      1     78      3      0.9683          0.6804E+06
   5972      1     78      4      0.9558          0.6804E+06
   5973      1     78      5      0.9494          0.6804E+06
   5974      1     78      6      0.9436          0.6804E+06
   5975      1     78      7      0.9321          0.6804E+06
   5976      1     78      8      0.9085          0.6804E+06
   5977      1     78      9      0.8707          0.6804E+06
   5978      1     78     10      0.8162          0.6804E+06
   5979      1     78     11      0.7641          0.6804E+06
   5980      1     78     12      0.7026          0.6804E+06
   5981      1     78     13      0.6378          0.6804E+06
   5982      1     78     14      0.5822          0.6804E+06
   5983      1     78     15      0.5215          0.6804E+06
   5984      1     78     16      0.4701          0.6804E+06
   5985      1     78     17      0.4138          0.6804E+06
   5986      1     78     18      0.3609          0.6804E+06
   5987      1     78     19      0.3169          0.6804E+06
   5988      1     78     20      0.2711          0.6804E+06
   5989      1     78     21      0.2337          0.6804E+06
   5990      1     78     22      0.2077          0.6804E+06
   5991      1     78     23      0.1826          0.6804E+06
   5992      1     78     24      0.1633          0.6804E+06
   5993      1     78     25      0.1426          0.6804E+06
   5994      1     78     26      0.1209          0.6804E+06
   5995      1     78     27      0.1036          0.6804E+06
   5996      1     78     28      0.8531E-01      0.6804E+06
   5997      1     78     29      0.6839E-01      0.6804E+06
   5998      1     78     30      0.5733E-01      0.6804E+06
   5999      1     78     31      0.4869E-01      0.6804E+06
   6000      1     78     32      0.4477E-01      0.6804E+06
   6001      1     78     33      0.4533E-01      0.6804E+06
   6002      1     78     34      0.5114E-01      0.6804E+06
   6003      1     78     35      0.5588E-01      0.6804E+06
   6004      1     78     36      0.5993E-01      0.6804E+06
   6005      1     78     37      0.6158E-01      0.6804E+06
   6006      1     78     38      0.5956E-01      0.6804E+06
   6007      1     78     39      0.4993E-01      0.6804E+06
   6008      1     78     40      0.3469E-01      0.6804E+06
   6009      1     78     41      0.1050E-01      0.6804E+06
   6010      1     78     42     -0.1511E-01      0.6804E+06
   6011      1     78     43     -0.4454E-01      0.6804E+06
   6012      1     78     44     -0.1072          0.6804E+06
   6013      1     78     45     -0.1426          0.6804E+06
   6014      1     78     46     -0.1364          0.6804E+06
   6015      1     78     47     -0.1325          0.6804E+06
   6016      1     78     48     -0.1254          0.6804E+06
   6017      1     78     49     -0.1234          0.6804E+06
   6018      1     78     50     -0.1231          0.6804E+06
   6019      1     78     51     -0.1226          0.6804E+06
   6020      1     78     52     -0.1204          0.6804E+06
   6021      1     78     53     -0.1176          0.6804E+06
   6022      1     78     54     -0.1074          0.6804E+06
   6023      1     78     55     -0.7695E-01      0.6804E+06
   6024      1     78     56     -0.3721E-01      0.6804E+06
   6025      1     78     57      0.4687E-03      0.6804E+06
   6026      1     78     58      0.2799E-01      0.6804E+06
   6027      1     78     59      0.4653E-01      0.6804E+06
   6028      1     78     60      0.6140E-01      0.6804E+06
   6029      1     78     61      0.6920E-01      0.6804E+06
   6030      1     78     62      0.7526E-01      0.6804E+06
   6031      1     78     63      0.8481E-01      0.6804E+06
   6032      1     78     64      0.9788E-01      0.6804E+06
   6033      1     78     65      0.1202          0.6804E+06
   6034      1     78     66      0.1457          0.6804E+06
   6035      1     78     85      0.3031          0.6804E+06
   6036      1     78     86      0.2962          0.6804E+06
   6037      1     78     87      0.2915          0.6804E+06
   6038      1     78     88      0.2918          0.6804E+06
   6039      1     78     89      0.2960          0.6804E+06
   6040      1     78     90      0.3008          0.6804E+06
   6041      1     78     91      0.3047          0.6804E+06
   6042      1     78     92      0.3089          0.6804E+06
   6043      1     78     93      0.3119          0.6804E+06
   6044      1     78     94      0.3148          0.6804E+06
   6045      1     78     95      0.3169          0.6804E+06
   6046      1     78     96      0.3182          0.6804E+06
   6047      1     78     97      0.3189          0.6804E+06
   6048      1     78     98      0.3198          0.6804E+06
   6049      1     78     99      0.3214          0.6804E+06
   6050      1     78    100      0.3231          0.6804E+06
   6051      1     79      1      0.9930          0.6804E+06
   6052      1     79      2      0.9799          0.6804E+06
   6053      1     79      3      0.9688          0.6804E+06
   6054      1     79      4      0.9581          0.6804E+06
   6055      1     79      5      0.9501          0.6804E+06
   6056      1     79      6      0.9428          0.6804E+06
   6057      1     79      7      0.9308          0.6804E+06
   6058      1     79      8      0.9096          0.6804E+06
   6059      1     79      9      0.8781          0.6804E+06
   6060      1     79     10      0.8324          0.6804E+06
   6061      1     79     11      0.7875          0.6804E+06
   6062      1     79     12      0.7324          0.6804E+06
   6063      1     79     13      0.6734          0.6804E+06
   6064      1     79     14      0.6212          0.6804E+06
   6065      1     79     15      0.5627          0.6804E+06
   6066      1     79     16      0.5119          0.6804E+06
   6067      1     79     17      0.4540          0.6804E+06
   6068      1     79     18      0.3961          0.6804E+06
   6069      1     79     19      0.3456          0.6804E+06
   6070      1     79     20      0.2921          0.6804E+06
   6071      1     79     21      0.2510          0.6804E+06
   6072      1     79     22      0.2254          0.6804E+06
   6073      1     79     23      0.2012          0.6804E+06
   6074      1     79     24      0.1819          0.6804E+06
   6075      1     79     25      0.1598          0.6804E+06
   6076      1     79     26      0.1358          0.6804E+06
   6077      1     79     27      0.1158          0.6804E+06
   6078      1     79     28      0.9451E-01      0.6804E+06
   6079      1     79     29      0.7495E-01      0.6804E+06
   6080      1     79     30      0.6192E-01      0.6804E+06
   6081      1     79     31      0.5244E-01      0.6804E+06
   6082      1     79     32      0.4801E-01      0.6804E+06
   6083      1     79     33      0.4721E-01      0.6804E+06
   6084      1     79     34      0.5186E-01      0.6804E+06
   6085      1     79     35      0.5652E-01      0.6804E+06
   6086      1     79     36      0.6092E-01      0.6804E+06
   6087      1     79     37      0.6354E-01      0.6804E+06
   6088      1     79     38      0.6399E-01      0.6804E+06
   6089      1     79     39      0.5964E-01      0.6804E+06
   6090      1     79     40      0.5134E-01      0.6804E+06
   6091      1     79     41      0.3708E-01      0.6804E+06
   6092      1     79     42      0.1872E-01      0.6804E+06
   6093      1     79     43      0.2921E-02      0.6804E+06
   6094      1     79     44     -0.2848E-01      0.6804E+06
   6095      1     79     45     -0.4160E-01      0.6804E+06
   6096      1     79     46     -0.2580E-01      0.6804E+06
   6097      1     79     47     -0.2476E-01      0.6804E+06
   6098      1     79     48     -0.2898E-01      0.6804E+06
   6099      1     79     49     -0.3123E-01      0.6804E+06
   6100      1     79     50     -0.2816E-01      0.6804E+06
   6101      1     79     51     -0.2968E-01      0.6804E+06
   6102      1     79     52     -0.2876E-01      0.6804E+06
   6103      1     79     53     -0.2502E-01      0.6804E+06
   6104      1     79     54     -0.1882E-01      0.6804E+06
   6105      1     79     55     -0.8717E-02      0.6804E+06
   6106      1     79     56      0.8236E-02      0.6804E+06
   6107      1     79     57      0.3112E-01      0.6804E+06
   6108      1     79     58      0.5396E-01      0.6804E+06
   6109      1     79     59      0.6928E-01      0.6804E+06
   6110      1     79     60      0.8204E-01      0.6804E+06
   6111      1     79     61      0.8909E-01      0.6804E+06
   6112      1     79     62      0.9480E-01      0.6804E+06
   6113      1     79     63      0.1052          0.6804E+06
   6114      1     79     64      0.1229          0.6804E+06
   6115      1     79     65      0.1452          0.6804E+06
   6116      1     79     66      0.1663          0.6804E+06
   6117      1     79     67      0.1837          0.6804E+06
   6118      1     79     68      0.2034          0.6804E+06
   6119      1     79     86      0.3006          0.6804E+06
   6120      1     79     87      0.2967          0.6804E+06
   6121      1     79     88      0.2965          0.6804E+06
   6122      1     79     89      0.2994          0.6804E+06
   6123      1     79     90      0.3033          0.6804E+06
   6124      1     79     91      0.3068          0.6804E+06
   6125      1     79     92      0.3107          0.6804E+06
   6126      1     79     93      0.3136          0.6804E+06
   6127      1     79     94      0.3163          0.6804E+06
   6128      1     79     95      0.3184          0.6804E+06
   6129      1     79     96      0.3195          0.6804E+06
   6130      1     79     97      0.3201          0.6804E+06
   6131      1     79     98      0.3208          0.6804E+06
   6132      1     79     99      0.3223          0.6804E+06
   6133      1     79    100      0.3238          0.6804E+06
   6134      1     80      1      0.9899          0.6804E+06
   6135      1     80      2      0.9776          0.6804E+06
   6136      1     80      3      0.9673          0.6804E+06
   6137      1     80      4      0.9571          0.6804E+06
   6138      1     80      5      0.9485          0.6804E+06
   6139      1     80      6      0.9403          0.6804E+06
   6140      1     80      7      0.9277          0.6804E+06
   6141      1     80      8      0.9079          0.6804E+06
   6142      1     80      9      0.8820          0.6804E+06
   6143      1     80     10      0.8444          0.6804E+06
   6144      1     80     11      0.8063          0.6804E+06
   6145      1     80     12      0.7577          0.6804E+06
   6146      1     80     13      0.7044          0.6804E+06
   6147      1     80     14      0.6562          0.6804E+06
   6148      1     80     15      0.6013          0.6804E+06
   6149      1     80     16      0.5529          0.6804E+06
   6150      1     80     17      0.4964          0.6804E+06
   6151      1     80     18      0.4353          0.6804E+06
   6152      1     80     19      0.3786          0.6804E+06
   6153      1     80     20      0.3165          0.6804E+06
   6154      1     80     21      0.2724          0.6804E+06
   6155      1     80     22      0.2494          0.6804E+06
   6156      1     80     23      0.2278          0.6804E+06
   6157      1     80     24      0.2080          0.6804E+06
   6158      1     80     25      0.1835          0.6804E+06
   6159      1     80     26      0.1560          0.6804E+06
   6160      1     80     27      0.1323          0.6804E+06
   6161      1     80     28      0.1066          0.6804E+06
   6162      1     80     29      0.8268E-01      0.6804E+06
   6163      1     80     30      0.6861E-01      0.6804E+06
   6164      1     80     31      0.5917E-01      0.6804E+06
   6165      1     80     32      0.5480E-01      0.6804E+06
   6166      1     80     33      0.5309E-01      0.6804E+06
   6167      1     80     34      0.5534E-01      0.6804E+06
   6168      1     80     35      0.5882E-01      0.6804E+06
   6169      1     80     36      0.6308E-01      0.6804E+06
   6170      1     80     37      0.6638E-01      0.6804E+06
   6171      1     80     38      0.6723E-01      0.6804E+06
   6172      1     80     39      0.6600E-01      0.6804E+06
   6173      1     80     40      0.6264E-01      0.6804E+06
   6174      1     80     41      0.5548E-01      0.6804E+06
   6175      1     80     42      0.4323E-01      0.6804E+06
   6176      1     80     43      0.2925E-01      0.6804E+06
   6177      1     80     44      0.1918E-01      0.6804E+06
   6178      1     80     45      0.1882E-01      0.6804E+06
   6179      1     80     46      0.2445E-01      0.6804E+06
   6180      1     80     47      0.2457E-01      0.6804E+06
   6181      1     80     48      0.1905E-01      0.6804E+06
   6182      1     80     49      0.1358E-01      0.6804E+06
   6183      1     80     50      0.1938E-01      0.6804E+06
   6184      1     80     51      0.2135E-01      0.6804E+06
   6185      1     80     52      0.2242E-01      0.6804E+06
   6186      1     80     53      0.2361E-01      0.6804E+06
   6187      1     80     54      0.2176E-01      0.6804E+06
   6188      1     80     55      0.3291E-01      0.6804E+06
   6189      1     80     56      0.4648E-01      0.6804E+06
   6190      1     80     57      0.6447E-01      0.6804E+06
   6191      1     80     58      0.8213E-01      0.6804E+06
   6192      1     80     59      0.9504E-01      0.6804E+06
   6193      1     80     60      0.1072          0.6804E+06
   6194      1     80     61      0.1153          0.6804E+06
   6195      1     80     62      0.1229          0.6804E+06
   6196      1     80     63      0.1327          0.6804E+06
   6197      1     80     64      0.1487          0.6804E+06
   6198      1     80     65      0.1686          0.6804E+06
   6199      1     80     66      0.1877          0.6804E+06
   6200      1     80     67      0.2039          0.6804E+06
   6201      1     80     68      0.2225          0.6804E+06
   6202      1     80     69      0.2374          0.6804E+06
   6203      1     80     70      0.2532          0.6804E+06
   6204      1     80     71      0.2698          0.6804E+06
   6205      1     80     88      0.3024          0.6804E+06
   6206      1     80     89      0.3041          0.6804E+06
   6207      1     80     90      0.3070          0.6804E+06
   6208      1     80     91      0.3099          0.6804E+06
   6209      1     80     92      0.3132          0.6804E+06
   6210      1     80     93      0.3160          0.6804E+06
   6211      1     80     94      0.3187          0.6804E+06
   6212      1     80     95      0.3209          0.6804E+06
   6213      1     80     96      0.3222          0.6804E+06
   6214      1     80     97      0.3232          0.6804E+06
   6215      1     80     98      0.3240          0.6804E+06
   6216      1     80     99      0.3250          0.6804E+06
   6217      1     80    100      0.3257          0.6804E+06
   6218      1     81      1      0.9873          0.6804E+06
   6219      1     81      2      0.9748          0.6804E+06
   6220      1     81      3      0.9642          0.6804E+06
   6221      1     81      4      0.9540          0.6804E+06
   6222      1     81      5      0.9456          0.6804E+06
   6223      1     81      6      0.9378          0.6804E+06
   6224      1     81      7      0.9260          0.6804E+06
   6225      1     81      8      0.9082          0.6804E+06
   6226      1     81      9      0.8861          0.6804E+06
   6227      1     81     10      0.8542          0.6804E+06
   6228      1     81     11      0.8212          0.6804E+06
   6229      1     81     12      0.7781          0.6804E+06
   6230      1     81     13      0.7292          0.6804E+06
   6231      1     81     14      0.6841          0.6804E+06
   6232      1     81     15      0.6324          0.6804E+06
   6233      1     81     16      0.5867          0.6804E+06
   6234      1     81     17      0.5332          0.6804E+06
   6235      1     81     18      0.4722          0.6804E+06
   6236      1     81     19      0.4140          0.6804E+06
   6237      1     81     20      0.3499          0.6804E+06
   6238      1     81     21      0.3059          0.6804E+06
   6239      1     81     22      0.2829          0.6804E+06
   6240      1     81     23      0.2601          0.6804E+06
   6241      1     81     24      0.2379          0.6804E+06
   6242      1     81     25      0.2098          0.6804E+06
   6243      1     81     26      0.1785          0.6804E+06
   6244      1     81     27      0.1509          0.6804E+06
   6245      1     81     28      0.1198          0.6804E+06
   6246      1     81     29      0.9064E-01      0.6804E+06
   6247      1     81     30      0.7631E-01      0.6804E+06
   6248      1     81     31      0.6747E-01      0.6804E+06
   6249      1     81     32      0.6310E-01      0.6804E+06
   6250      1     81     33      0.6036E-01      0.6804E+06
   6251      1     81     34      0.6055E-01      0.6804E+06
   6252      1     81     35      0.6221E-01      0.6804E+06
   6253      1     81     36      0.6534E-01      0.6804E+06
   6254      1     81     37      0.6907E-01      0.6804E+06
   6255      1     81     38      0.7030E-01      0.6804E+06
   6256      1     81     39      0.6990E-01      0.6804E+06
   6257      1     81     40      0.6899E-01      0.6804E+06
   6258      1     81     41      0.6721E-01      0.6804E+06
   6259      1     81     42      0.6061E-01      0.6804E+06
   6260      1     81     43      0.5408E-01      0.6804E+06
   6261      1     81     44      0.5025E-01      0.6804E+06
   6262      1     81     45      0.5074E-01      0.6804E+06
   6263      1     81     46      0.5356E-01      0.6804E+06
   6264      1     81     47      0.5413E-01      0.6804E+06
   6265      1     81     48      0.5197E-01      0.6804E+06
   6266      1     81     49      0.4898E-01      0.6804E+06
   6267      1     81     50      0.5022E-01      0.6804E+06
   6268      1     81     51      0.5167E-01      0.6804E+06
   6269      1     81     52      0.5304E-01      0.6804E+06
   6270      1     81     53      0.5547E-01      0.6804E+06
   6271      1     81     54      0.6126E-01      0.6804E+06
   6272      1     81     55      0.6774E-01      0.6804E+06
   6273      1     81     56      0.7753E-01      0.6804E+06
   6274      1     81     57      0.9229E-01      0.6804E+06
   6275      1     81     58      0.1069          0.6804E+06
   6276      1     81     59      0.1191          0.6804E+06
   6277      1     81     60      0.1316          0.6804E+06
   6278      1     81     61      0.1408          0.6804E+06
   6279      1     81     62      0.1502          0.6804E+06
   6280      1     81     63      0.1612          0.6804E+06
   6281      1     81     64      0.1742          0.6804E+06
   6282      1     81     65      0.1903          0.6804E+06
   6283      1     81     66      0.2068          0.6804E+06
   6284      1     81     67      0.2209          0.6804E+06
   6285      1     81     68      0.2372          0.6804E+06
   6286      1     81     69      0.2505          0.6804E+06
   6287      1     81     70      0.2648          0.6804E+06
   6288      1     81     71      0.2791          0.6804E+06
   6289      1     81     72      0.2915          0.6804E+06
   6290      1     81     73      0.3039          0.6804E+06
   6291      1     81     89      0.3084          0.6804E+06
   6292      1     81     90      0.3106          0.6804E+06
   6293      1     81     91      0.3130          0.6804E+06
   6294      1     81     92      0.3159          0.6804E+06
   6295      1     81     93      0.3186          0.6804E+06
   6296      1     81     94      0.3213          0.6804E+06
   6297      1     81     95      0.3236          0.6804E+06
   6298      1     81     96      0.3252          0.6804E+06
   6299      1     81     97      0.3265          0.6804E+06
   6300      1     81     98      0.3273          0.6804E+06
   6301      1     81     99      0.3279          0.6804E+06
   6302      1     81    100      0.3280          0.6804E+06
   6303      1     82      1      0.9850          0.6804E+06
   6304      1     82      2      0.9718          0.6804E+06
   6305      1     82      3      0.9600          0.6804E+06
   6306      1     82      4      0.9491          0.6804E+06
   6307      1     82      5      0.9421          0.6804E+06
   6308      1     82      6      0.9359          0.6804E+06
   6309      1     82      7      0.9258          0.6804E+06
   6310      1     82      8      0.9106          0.6804E+06
   6311      1     82      9      0.8921          0.6804E+06
   6312      1     82     10      0.8655          0.6804E+06
   6313      1     82     11      0.8377          0.6804E+06
   6314      1     82     12      0.8005          0.6804E+06
   6315      1     82     13      0.7551          0.6804E+06
   6316      1     82     14      0.7127          0.6804E+06
   6317      1     82     15      0.6637          0.6804E+06
   6318      1     82     16      0.6205          0.6804E+06
   6319      1     82     17      0.5704          0.6804E+06
   6320      1     82     18      0.5144          0.6804E+06
   6321      1     82     19      0.4626          0.6804E+06
   6322      1     82     20      0.4066          0.6804E+06
   6323      1     82     21      0.3648          0.6804E+06
   6324      1     82     22      0.3372          0.6804E+06
   6325      1     82     23      0.3074          0.6804E+06
   6326      1     82     24      0.2799          0.6804E+06
   6327      1     82     25      0.2462          0.6804E+06
   6328      1     82     26      0.2099          0.6804E+06
   6329      1     82     27      0.1777          0.6804E+06
   6330      1     82     28      0.1418          0.6804E+06
   6331      1     82     29      0.1090          0.6804E+06
   6332      1     82     30      0.9295E-01      0.6804E+06
   6333      1     82     31      0.8270E-01      0.6804E+06
   6334      1     82     32      0.7687E-01      0.6804E+06
   6335      1     82     33      0.7207E-01      0.6804E+06
   6336      1     82     34      0.6935E-01      0.6804E+06
   6337      1     82     35      0.6826E-01      0.6804E+06
   6338      1     82     36      0.6823E-01      0.6804E+06
   6339      1     82     37      0.6906E-01      0.6804E+06
   6340      1     82     38      0.6936E-01      0.6804E+06
   6341      1     82     39      0.7038E-01      0.6804E+06
   6342      1     82     40      0.7195E-01      0.6804E+06
   6343      1     82     41      0.7384E-01      0.6804E+06
   6344      1     82     42      0.7322E-01      0.6804E+06
   6345      1     82     43      0.7371E-01      0.6804E+06
   6346      1     82     44      0.7529E-01      0.6804E+06
   6347      1     82     45      0.7636E-01      0.6804E+06
   6348      1     82     46      0.7753E-01      0.6804E+06
   6349      1     82     47      0.7820E-01      0.6804E+06
   6350      1     82     48      0.7750E-01      0.6804E+06
   6351      1     82     49      0.7578E-01      0.6804E+06
   6352      1     82     50      0.7534E-01      0.6804E+06
   6353      1     82     51      0.7593E-01      0.6804E+06
   6354      1     82     52      0.7831E-01      0.6804E+06
   6355      1     82     53      0.8291E-01      0.6804E+06
   6356      1     82     54      0.9131E-01      0.6804E+06
   6357      1     82     55      0.9968E-01      0.6804E+06
   6358      1     82     56      0.1089          0.6804E+06
   6359      1     82     57      0.1216          0.6804E+06
   6360      1     82     58      0.1348          0.6804E+06
   6361      1     82     59      0.1470          0.6804E+06
   6362      1     82     60      0.1603          0.6804E+06
   6363      1     82     61      0.1704          0.6804E+06
   6364      1     82     62      0.1810          0.6804E+06
   6365      1     82     63      0.1926          0.6804E+06
   6366      1     82     64      0.2028          0.6804E+06
   6367      1     82     65      0.2148          0.6804E+06
   6368      1     82     66      0.2283          0.6804E+06
   6369      1     82     67      0.2402          0.6804E+06
   6370      1     82     68      0.2534          0.6804E+06
   6371      1     82     69      0.2645          0.6804E+06
   6372      1     82     70      0.2771          0.6804E+06
   6373      1     82     71      0.2900          0.6804E+06
   6374      1     82     72      0.3005          0.6804E+06
   6375      1     82     73      0.3111          0.6804E+06
   6376      1     82     74      0.3200          0.6804E+06
   6377      1     82     75      0.3267          0.6804E+06
   6378      1     82     91      0.3166          0.6804E+06
   6379      1     82     92      0.3193          0.6804E+06
   6380      1     82     93      0.3217          0.6804E+06
   6381      1     82     94      0.3244          0.6804E+06
   6382      1     82     95      0.3270          0.6804E+06
   6383      1     82     96      0.3290          0.6804E+06
   6384      1     82     97      0.3307          0.6804E+06
   6385      1     82     98      0.3315          0.6804E+06
   6386      1     82     99      0.3317          0.6804E+06
   6387      1     82    100      0.3309          0.6804E+06
   6388      1     83      1      0.9840          0.6804E+06
   6389      1     83      2      0.9704          0.6804E+06
   6390      1     83      3      0.9581          0.6804E+06
   6391      1     83      4      0.9471          0.6804E+06
   6392      1     83      5      0.9411          0.6804E+06
   6393      1     83      6      0.9360          0.6804E+06
   6394      1     83      7      0.9273          0.6804E+06
   6395      1     83      8      0.9141          0.6804E+06
   6396      1     83      9      0.8983          0.6804E+06
   6397      1     83     10      0.8753          0.6804E+06
   6398      1     83     11      0.8507          0.6804E+06
   6399      1     83     12      0.8168          0.6804E+06
   6400      1     83     13      0.7746          0.6804E+06
   6401      1     83     14      0.7343          0.6804E+06
   6402      1     83     15      0.6870          0.6804E+06
   6403      1     83     16      0.6451          0.6804E+06
   6404      1     83     17      0.5973          0.6804E+06
   6405      1     83     18      0.5485          0.6804E+06
   6406      1     83     19      0.5057          0.6804E+06
   6407      1     83     20      0.4602          0.6804E+06
   6408      1     83     21      0.4227          0.6804E+06
   6409      1     83     22      0.3923          0.6804E+06
   6410      1     83     23      0.3560          0.6804E+06
   6411      1     83     24      0.3226          0.6804E+06
   6412      1     83     25      0.2831          0.6804E+06
   6413      1     83     26      0.2420          0.6804E+06
   6414      1     83     27      0.2066          0.6804E+06
   6415      1     83     28      0.1686          0.6804E+06
   6416      1     83     29      0.1354          0.6804E+06
   6417      1     83     30      0.1159          0.6804E+06
   6418      1     83     31      0.1014          0.6804E+06
   6419      1     83     32      0.9273E-01      0.6804E+06
   6420      1     83     33      0.8520E-01      0.6804E+06
   6421      1     83     34      0.7963E-01      0.6804E+06
   6422      1     83     35      0.7584E-01      0.6804E+06
   6423      1     83     36      0.7254E-01      0.6804E+06
   6424      1     83     37      0.7060E-01      0.6804E+06
   6425      1     83     38      0.7009E-01      0.6804E+06
   6426      1     83     39      0.7160E-01      0.6804E+06
   6427      1     83     40      0.7453E-01      0.6804E+06
   6428      1     83     41      0.7913E-01      0.6804E+06
   6429      1     83     42      0.8310E-01      0.6804E+06
   6430      1     83     43      0.8644E-01      0.6804E+06
   6431      1     83     44      0.8984E-01      0.6804E+06
   6432      1     83     45      0.9203E-01      0.6804E+06
   6433      1     83     46      0.9308E-01      0.6804E+06
   6434      1     83     47      0.9360E-01      0.6804E+06
   6435      1     83     48      0.9308E-01      0.6804E+06
   6436      1     83     49      0.9166E-01      0.6804E+06
   6437      1     83     50      0.9102E-01      0.6804E+06
   6438      1     83     51      0.9196E-01      0.6804E+06
   6439      1     83     52      0.9631E-01      0.6804E+06
   6440      1     83     53      0.1034          0.6804E+06
   6441      1     83     54      0.1127          0.6804E+06
   6442      1     83     55      0.1222          0.6804E+06
   6443      1     83     56      0.1318          0.6804E+06
   6444      1     83     57      0.1448          0.6804E+06
   6445      1     83     58      0.1583          0.6804E+06
   6446      1     83     59      0.1710          0.6804E+06
   6447      1     83     60      0.1849          0.6804E+06
   6448      1     83     61      0.1956          0.6804E+06
   6449      1     83     62      0.2064          0.6804E+06
   6450      1     83     63      0.2176          0.6804E+06
   6451      1     83     64      0.2264          0.6804E+06
   6452      1     83     65      0.2358          0.6804E+06
   6453      1     83     66      0.2462          0.6804E+06
   6454      1     83     67      0.2563          0.6804E+06
   6455      1     83     68      0.2671          0.6804E+06
   6456      1     83     69      0.2763          0.6804E+06
   6457      1     83     70      0.2870          0.6804E+06
   6458      1     83     71      0.2986          0.6804E+06
   6459      1     83     72      0.3077          0.6804E+06
   6460      1     83     73      0.3169          0.6804E+06
   6461      1     83     74      0.3249          0.6804E+06
   6462      1     83     75      0.3310          0.6804E+06
   6463      1     83     76      0.3361          0.6804E+06
   6464      1     83     77      0.3381          0.6804E+06
   6465      1     83     93      0.3245          0.6804E+06
   6466      1     83     94      0.3272          0.6804E+06
   6467      1     83     95      0.3299          0.6804E+06
   6468      1     83     96      0.3322          0.6804E+06
   6469      1     83     97      0.3344          0.6804E+06
   6470      1     83     98      0.3353          0.6804E+06
   6471      1     83     99      0.3350          0.6804E+06
   6472      1     83    100      0.3336          0.6804E+06
   6473      1     84      1      0.9842          0.6804E+06
   6474      1     84      2      0.9714          0.6804E+06
   6475      1     84      3      0.9601          0.6804E+06
   6476      1     84      4      0.9499          0.6804E+06
   6477      1     84      5      0.9436          0.6804E+06
   6478      1     84      6      0.9385          0.6804E+06
   6479      1     84      7      0.9306          0.6804E+06
   6480      1     84      8      0.9193          0.6804E+06
   6481      1     84      9      0.9060          0.6804E+06
   6482      1     84     10      0.8864          0.6804E+06
   6483      1     84     11      0.8648          0.6804E+06
   6484      1     84     12      0.8339          0.6804E+06
   6485      1     84     13      0.7947          0.6804E+06
   6486      1     84     14      0.7563          0.6804E+06
   6487      1     84     15      0.7101          0.6804E+06
   6488      1     84     16      0.6693          0.6804E+06
   6489      1     84     17      0.6246          0.6804E+06
   6490      1     84     18      0.5839          0.6804E+06
   6491      1     84     19      0.5514          0.6804E+06
   6492      1     84     20      0.5184          0.6804E+06
   6493      1     84     21      0.4889          0.6804E+06
   6494      1     84     22      0.4576          0.6804E+06
   6495      1     84     23      0.4144          0.6804E+06
   6496      1     84     24      0.3732          0.6804E+06
   6497      1     84     25      0.3265          0.6804E+06
   6498      1     84     26      0.2805          0.6804E+06
   6499      1     84     27      0.2423          0.6804E+06
   6500      1     84     28      0.2028          0.6804E+06
   6501      1     84     29      0.1690          0.6804E+06
   6502      1     84     30      0.1462          0.6804E+06
   6503      1     84     31      0.1270          0.6804E+06
   6504      1     84     32      0.1144          0.6804E+06
   6505      1     84     33      0.1032          0.6804E+06
   6506      1     84     34      0.9457E-01      0.6804E+06
   6507      1     84     35      0.8780E-01      0.6804E+06
   6508      1     84     36      0.8105E-01      0.6804E+06
   6509      1     84     37      0.7706E-01      0.6804E+06
   6510      1     84     38      0.7524E-01      0.6804E+06
   6511      1     84     39      0.7590E-01      0.6804E+06
   6512      1     84     40      0.7921E-01      0.6804E+06
   6513      1     84     41      0.8587E-01      0.6804E+06
   6514      1     84     42      0.9323E-01      0.6804E+06
   6515      1     84     43      0.9840E-01      0.6804E+06
   6516      1     84     44      0.1035          0.6804E+06
   6517      1     84     45      0.1076          0.6804E+06
   6518      1     84     46      0.1095          0.6804E+06
   6519      1     84     47      0.1103          0.6804E+06
   6520      1     84     48      0.1097          0.6804E+06
   6521      1     84     49      0.1079          0.6804E+06
   6522      1     84     50      0.1068          0.6804E+06
   6523      1     84     51      0.1084          0.6804E+06
   6524      1     84     52      0.1140          0.6804E+06
   6525      1     84     53      0.1223          0.6804E+06
   6526      1     84     54      0.1333          0.6804E+06
   6527      1     84     55      0.1446          0.6804E+06
   6528      1     84     56      0.1556          0.6804E+06
   6529      1     84     57      0.1696          0.6804E+06
   6530      1     84     58      0.1837          0.6804E+06
   6531      1     84     59      0.1967          0.6804E+06
   6532      1     84     60      0.2114          0.6804E+06
   6533      1     84     61      0.2228          0.6804E+06
   6534      1     84     62      0.2339          0.6804E+06
   6535      1     84     63      0.2447          0.6804E+06
   6536      1     84     64      0.2522          0.6804E+06
   6537      1     84     65      0.2589          0.6804E+06
   6538      1     84     66      0.2654          0.6804E+06
   6539      1     84     67      0.2731          0.6804E+06
   6540      1     84     68      0.2817          0.6804E+06
   6541      1     84     69      0.2889          0.6804E+06
   6542      1     84     70      0.2972          0.6804E+06
   6543      1     84     71      0.3072          0.6804E+06
   6544      1     84     72      0.3147          0.6804E+06
   6545      1     84     73      0.3223          0.6804E+06
   6546      1     84     74      0.3292          0.6804E+06
   6547      1     84     75      0.3346          0.6804E+06
   6548      1     84     76      0.3388          0.6804E+06
   6549      1     84     77      0.3398          0.6804E+06
   6550      1     84     78      0.3385          0.6804E+06
   6551      1     84     79      0.3366          0.6804E+06
   6552      1     84     80      0.3348          0.6804E+06
   6553      1     84     94      0.3300          0.6804E+06
   6554      1     84     95      0.3329          0.6804E+06
   6555      1     84     96      0.3355          0.6804E+06
   6556      1     84     97      0.3383          0.6804E+06
   6557      1     84     98      0.3393          0.6804E+06
   6558      1     84     99      0.3385          0.6804E+06
   6559      1     84    100      0.3364          0.6804E+06
   6560      1     85      1      0.9851          0.6804E+06
   6561      1     85      2      0.9739          0.6804E+06
   6562      1     85      3      0.9643          0.6804E+06
   6563      1     85      4      0.9552          0.6804E+06
   6564      1     85      5      0.9484          0.6804E+06
   6565      1     85      6      0.9428          0.6804E+06
   6566      1     85      7      0.9352          0.6804E+06
   6567      1     85      8      0.9253          0.6804E+06
   6568      1     85      9      0.9141          0.6804E+06
   6569      1     85     10      0.8975          0.6804E+06
   6570      1     85     11      0.8790          0.6804E+06
   6571      1     85     12      0.8511          0.6804E+06
   6572      1     85     13      0.8140          0.6804E+06
   6573      1     85     14      0.7764          0.6804E+06
   6574      1     85     15      0.7303          0.6804E+06
   6575      1     85     16      0.6897          0.6804E+06
   6576      1     85     17      0.6478          0.6804E+06
   6577      1     85     18      0.6139          0.6804E+06
   6578      1     85     19      0.5904          0.6804E+06
   6579      1     85     20      0.5688          0.6804E+06
   6580      1     85     21      0.5502          0.6804E+06
   6581      1     85     22      0.5192          0.6804E+06
   6582      1     85     23      0.4683          0.6804E+06
   6583      1     85     24      0.4203          0.6804E+06
   6584      1     85     25      0.3680          0.6804E+06
   6585      1     85     26      0.3183          0.6804E+06
   6586      1     85     27      0.2781          0.6804E+06
   6587      1     85     28      0.2371          0.6804E+06
   6588      1     85     29      0.2016          0.6804E+06
   6589      1     85     30      0.1764          0.6804E+06
   6590      1     85     31      0.1540          0.6804E+06
   6591      1     85     32      0.1384          0.6804E+06
   6592      1     85     33      0.1238          0.6804E+06
   6593      1     85     34      0.1125          0.6804E+06
   6594      1     85     35      0.1035          0.6804E+06
   6595      1     85     36      0.9425E-01      0.6804E+06
   6596      1     85     37      0.8752E-01      0.6804E+06
   6597      1     85     38      0.8307E-01      0.6804E+06
   6598      1     85     39      0.8269E-01      0.6804E+06
   6599      1     85     40      0.8671E-01      0.6804E+06
   6600      1     85     41      0.9372E-01      0.6804E+06
   6601      1     85     42      0.1019          0.6804E+06
   6602      1     85     43      0.1097          0.6804E+06
   6603      1     85     44      0.1181          0.6804E+06
   6604      1     85     45      0.1238          0.6804E+06
   6605      1     85     46      0.1266          0.6804E+06
   6606      1     85     47      0.1277          0.6804E+06
   6607      1     85     48      0.1268          0.6804E+06
   6608      1     85     49      0.1242          0.6804E+06
   6609      1     85     50      0.1220          0.6804E+06
   6610      1     85     51      0.1240          0.6804E+06
   6611      1     85     52      0.1306          0.6804E+06
   6612      1     85     53      0.1402          0.6804E+06
   6613      1     85     54      0.1527          0.6804E+06
   6614      1     85     55      0.1658          0.6804E+06
   6615      1     85     56      0.1781          0.6804E+06
   6616      1     85     57      0.1930          0.6804E+06
   6617      1     85     58      0.2078          0.6804E+06
   6618      1     85     59      0.2212          0.6804E+06
   6619      1     85     60      0.2367          0.6804E+06
   6620      1     85     61      0.2491          0.6804E+06
   6621      1     85     62      0.2610          0.6804E+06
   6622      1     85     63      0.2708          0.6804E+06
   6623      1     85     64      0.2763          0.6804E+06
   6624      1     85     65      0.2798          0.6804E+06
   6625      1     85     66      0.2834          0.6804E+06
   6626      1     85     67      0.2877          0.6804E+06
   6627      1     85     68      0.2941          0.6804E+06
   6628      1     85     69      0.3002          0.6804E+06
   6629      1     85     70      0.3069          0.6804E+06
   6630      1     85     71      0.3145          0.6804E+06
   6631      1     85     72      0.3201          0.6804E+06
   6632      1     85     73      0.3260          0.6804E+06
   6633      1     85     74      0.3313          0.6804E+06
   6634      1     85     75      0.3356          0.6804E+06
   6635      1     85     76      0.3386          0.6804E+06
   6636      1     85     77      0.3392          0.6804E+06
   6637      1     85     78      0.3377          0.6804E+06
   6638      1     85     79      0.3360          0.6804E+06
   6639      1     85     80      0.3344          0.6804E+06
   6640      1     85     81      0.3324          0.6804E+06
   6641      1     85     82      0.3301          0.6804E+06
   6642      1     85     95      0.3351          0.6804E+06
   6643      1     85     96      0.3376          0.6804E+06
   6644      1     85     97      0.3401          0.6804E+06
   6645      1     85     98      0.3411          0.6804E+06
   6646      1     85     99      0.3404          0.6804E+06
   6647      1     85    100      0.3384          0.6804E+06
   6648      1     86      1      0.9855          0.6804E+06
   6649      1     86      2      0.9757          0.6804E+06
   6650      1     86      3      0.9674          0.6804E+06
   6651      1     86      4      0.9592          0.6804E+06
   6652      1     86      5      0.9524          0.6804E+06
   6653      1     86      6      0.9466          0.6804E+06
   6654      1     86      7      0.9393          0.6804E+06
   6655      1     86      8      0.9304          0.6804E+06
   6656      1     86      9      0.9207          0.6804E+06
   6657      1     86     10      0.9070          0.6804E+06
   6658      1     86     11      0.8916          0.6804E+06
   6659      1     86     12      0.8672          0.6804E+06
   6660      1     86     13      0.8310          0.6804E+06
   6661      1     86     14      0.7931          0.6804E+06
   6662      1     86     15      0.7462          0.6804E+06
   6663      1     86     16      0.7049          0.6804E+06
   6664      1     86     17      0.6641          0.6804E+06
   6665      1     86     18      0.6349          0.6804E+06
   6666      1     86     19      0.6180          0.6804E+06
   6667      1     86     20      0.6034          0.6804E+06
   6668      1     86     21      0.5916          0.6804E+06
   6669      1     86     22      0.5612          0.6804E+06
   6670      1     86     23      0.5063          0.6804E+06
   6671      1     86     24      0.4556          0.6804E+06
   6672      1     86     25      0.4009          0.6804E+06
   6673      1     86     26      0.3494          0.6804E+06
   6674      1     86     27      0.3078          0.6804E+06
   6675      1     86     28      0.2656          0.6804E+06
   6676      1     86     29      0.2287          0.6804E+06
   6677      1     86     30      0.2021          0.6804E+06
   6678      1     86     31      0.1776          0.6804E+06
   6679      1     86     32      0.1602          0.6804E+06
   6680      1     86     33      0.1437          0.6804E+06
   6681      1     86     34      0.1306          0.6804E+06
   6682      1     86     35      0.1205          0.6804E+06
   6683      1     86     36      0.1101          0.6804E+06
   6684      1     86     37      0.1013          0.6804E+06
   6685      1     86     38      0.9466E-01      0.6804E+06
   6686      1     86     39      0.9319E-01      0.6804E+06
   6687      1     86     40      0.9788E-01      0.6804E+06
   6688      1     86     41      0.1051          0.6804E+06
   6689      1     86     42      0.1140          0.6804E+06
   6690      1     86     43      0.1231          0.6804E+06
   6691      1     86     44      0.1331          0.6804E+06
   6692      1     86     45      0.1390          0.6804E+06
   6693      1     86     46      0.1419          0.6804E+06
   6694      1     86     47      0.1431          0.6804E+06
   6695      1     86     48      0.1420          0.6804E+06
   6696      1     86     49      0.1384          0.6804E+06
   6697      1     86     50      0.1353          0.6804E+06
   6698      1     86     51      0.1373          0.6804E+06
   6699      1     86     52      0.1452          0.6804E+06
   6700      1     86     53      0.1563          0.6804E+06
   6701      1     86     54      0.1700          0.6804E+06
   6702      1     86     55      0.1844          0.6804E+06
   6703      1     86     56      0.1973          0.6804E+06
   6704      1     86     57      0.2125          0.6804E+06
   6705      1     86     58      0.2274          0.6804E+06
   6706      1     86     59      0.2409          0.6804E+06
   6707      1     86     60      0.2565          0.6804E+06
   6708      1     86     61      0.2695          0.6804E+06
   6709      1     86     62      0.2835          0.6804E+06
   6710      1     86     63      0.2917          0.6804E+06
   6711      1     86     64      0.2942          0.6804E+06
   6712      1     86     65      0.2942          0.6804E+06
   6713      1     86     66      0.2955          0.6804E+06
   6714      1     86     67      0.2987          0.6804E+06
   6715      1     86     68      0.3035          0.6804E+06
   6716      1     86     69      0.3083          0.6804E+06
   6717      1     86     70      0.3140          0.6804E+06
   6718      1     86     71      0.3193          0.6804E+06
   6719      1     86     72      0.3234          0.6804E+06
   6720      1     86     73      0.3277          0.6804E+06
   6721      1     86     74      0.3315          0.6804E+06
   6722      1     86     75      0.3342          0.6804E+06
   6723      1     86     76      0.3360          0.6804E+06
   6724      1     86     77      0.3364          0.6804E+06
   6725      1     86     78      0.3358          0.6804E+06
   6726      1     86     79      0.3346          0.6804E+06
   6727      1     86     80      0.3333          0.6804E+06
   6728      1     86     81      0.3318          0.6804E+06
   6729      1     86     82      0.3300          0.6804E+06
   6730      1     86     83      0.3282          0.6804E+06
   6731      1     86     84      0.3265          0.6804E+06
   6732      1     87      1      0.9846          0.6804E+06
   6733      1     87      2      0.9765          0.6804E+06
   6734      1     87      3      0.9696          0.6804E+06
   6735      1     87      4      0.9623          0.6804E+06
   6736      1     87      5      0.9557          0.6804E+06
   6737      1     87      6      0.9500          0.6804E+06
   6738      1     87      7      0.9431          0.6804E+06
   6739      1     87      8      0.9350          0.6804E+06
   6740      1     87      9      0.9266          0.6804E+06
   6741      1     87     10      0.9151          0.6804E+06
   6742      1     87     11      0.9029          0.6804E+06
   6743      1     87     12      0.8834          0.6804E+06
   6744      1     87     13      0.8484          0.6804E+06
   6745      1     87     14      0.8102          0.6804E+06
   6746      1     87     15      0.7640          0.6804E+06
   6747      1     87     16      0.7228          0.6804E+06
   6748      1     87     17      0.6824          0.6804E+06
   6749      1     87     18      0.6561          0.6804E+06
   6750      1     87     19      0.6434          0.6804E+06
   6751      1     87     20      0.6288          0.6804E+06
   6752      1     87     21      0.6099          0.6804E+06
   6753      1     87     22      0.5807          0.6804E+06
   6754      1     87     23      0.5333          0.6804E+06
   6755      1     87     24      0.4860          0.6804E+06
   6756      1     87     25      0.4325          0.6804E+06
   6757      1     87     26      0.3809          0.6804E+06
   6758      1     87     27      0.3388          0.6804E+06
   6759      1     87     28      0.2957          0.6804E+06
   6760      1     87     29      0.2578          0.6804E+06
   6761      1     87     30      0.2300          0.6804E+06
   6762      1     87     31      0.2041          0.6804E+06
   6763      1     87     32      0.1854          0.6804E+06
   6764      1     87     33      0.1678          0.6804E+06
   6765      1     87     34      0.1536          0.6804E+06
   6766      1     87     35      0.1427          0.6804E+06
   6767      1     87     36      0.1319          0.6804E+06
   6768      1     87     37      0.1232          0.6804E+06
   6769      1     87     38      0.1179          0.6804E+06
   6770      1     87     39      0.1161          0.6804E+06
   6771      1     87     40      0.1185          0.6804E+06
   6772      1     87     41      0.1230          0.6804E+06
   6773      1     87     42      0.1327          0.6804E+06
   6774      1     87     43      0.1428          0.6804E+06
   6775      1     87     44      0.1536          0.6804E+06
   6776      1     87     45      0.1606          0.6804E+06
   6777      1     87     46      0.1636          0.6804E+06
   6778      1     87     47      0.1645          0.6804E+06
   6779      1     87     48      0.1623          0.6804E+06
   6780      1     87     49      0.1561          0.6804E+06
   6781      1     87     50      0.1515          0.6804E+06
   6782      1     87     51      0.1535          0.6804E+06
   6783      1     87     52      0.1623          0.6804E+06
   6784      1     87     53      0.1751          0.6804E+06
   6785      1     87     54      0.1906          0.6804E+06
   6786      1     87     55      0.2061          0.6804E+06
   6787      1     87     56      0.2192          0.6804E+06
   6788      1     87     57      0.2333          0.6804E+06
   6789      1     87     58      0.2476          0.6804E+06
   6790      1     87     59      0.2603          0.6804E+06
   6791      1     87     60      0.2750          0.6804E+06
   6792      1     87     61      0.2880          0.6804E+06
   6793      1     87     62      0.3038          0.6804E+06
   6794      1     87     63      0.3098          0.6804E+06
   6795      1     87     64      0.3096          0.6804E+06
   6796      1     87     65      0.3069          0.6804E+06
   6797      1     87     66      0.3062          0.6804E+06
   6798      1     87     67      0.3083          0.6804E+06
   6799      1     87     68      0.3114          0.6804E+06
   6800      1     87     69      0.3149          0.6804E+06
   6801      1     87     70      0.3202          0.6804E+06
   6802      1     87     71      0.3235          0.6804E+06
   6803      1     87     72      0.3261          0.6804E+06
   6804      1     87     73      0.3287          0.6804E+06
   6805      1     87     74      0.3304          0.6804E+06
   6806      1     87     75      0.3316          0.6804E+06
   6807      1     87     76      0.3324          0.6804E+06
   6808      1     87     77      0.3326          0.6804E+06
   6809      1     87     78      0.3327          0.6804E+06
   6810      1     87     79      0.3323          0.6804E+06
   6811      1     87     80      0.3316          0.6804E+06
   6812      1     87     81      0.3306          0.6804E+06
   6813      1     87     82      0.3294          0.6804E+06
   6814      1     87     83      0.3280          0.6804E+06
   6815      1     87     84      0.3268          0.6804E+06
   6816      1     87     85      0.3259          0.6804E+06
   6817      1     87     86      0.3252          0.6804E+06
   6818      1     88      1      0.9821          0.6804E+06
   6819      1     88      2      0.9755          0.6804E+06
   6820      1     88      3      0.9698          0.6804E+06
   6821      1     88      4      0.9636          0.6804E+06
   6822      1     88      5      0.9574          0.6804E+06
   6823      1     88      6      0.9519          0.6804E+06
   6824      1     88      7      0.9453          0.6804E+06
   6825      1     88      8      0.9377          0.6804E+06
   6826      1     88      9      0.9298          0.6804E+06
   6827      1     88     10      0.9193          0.6804E+06
   6828      1     88     11      0.9080          0.6804E+06
   6829      1     88     12      0.8898          0.6804E+06
   6830      1     88     13      0.8582          0.6804E+06
   6831      1     88     14      0.8239          0.6804E+06
   6832      1     88     15      0.7824          0.6804E+06
   6833      1     88     16      0.7458          0.6804E+06
   6834      1     88     17      0.7097          0.6804E+06
   6835      1     88     18      0.6842          0.6804E+06
   6836      1     88     19      0.6688          0.6804E+06
   6837      1     88     20      0.6502          0.6804E+06
   6838      1     88     21      0.6260          0.6804E+06
   6839      1     88     22      0.5967          0.6804E+06
   6840      1     88     23      0.5534          0.6804E+06
   6841      1     88     24      0.5099          0.6804E+06
   6842      1     88     25      0.4586          0.6804E+06
   6843      1     88     26      0.4080          0.6804E+06
   6844      1     88     27      0.3659          0.6804E+06
   6845      1     88     28      0.3223          0.6804E+06
   6846      1     88     29      0.2838          0.6804E+06
   6847      1     88     30      0.2554          0.6804E+06
   6848      1     88     31      0.2291          0.6804E+06
   6849      1     88     32      0.2103          0.6804E+06
   6850      1     88     33      0.1926          0.6804E+06
   6851      1     88     34      0.1782          0.6804E+06
   6852      1     88     35      0.1674          0.6804E+06
   6853      1     88     36      0.1573          0.6804E+06
   6854      1     88     37      0.1509          0.6804E+06
   6855      1     88     38      0.1495          0.6804E+06
   6856      1     88     39      0.1487          0.6804E+06
   6857      1     88     40      0.1479          0.6804E+06
   6858      1     88     41      0.1499          0.6804E+06
   6859      1     88     42      0.1588          0.6804E+06
   6860      1     88     43      0.1684          0.6804E+06
   6861      1     88     44      0.1789          0.6804E+06
   6862      1     88     45      0.1866          0.6804E+06
   6863      1     88     46      0.1898          0.6804E+06
   6864      1     88     47      0.1899          0.6804E+06
   6865      1     88     48      0.1867          0.6804E+06
   6866      1     88     49      0.1810          0.6804E+06
   6867      1     88     50      0.1754          0.6804E+06
   6868      1     88     51      0.1767          0.6804E+06
   6869      1     88     52      0.1854          0.6804E+06
   6870      1     88     53      0.1985          0.6804E+06
   6871      1     88     54      0.2139          0.6804E+06
   6872      1     88     55      0.2281          0.6804E+06
   6873      1     88     56      0.2402          0.6804E+06
   6874      1     88     57      0.2541          0.6804E+06
   6875      1     88     58      0.2660          0.6804E+06
   6876      1     88     59      0.2763          0.6804E+06
   6877      1     88     60      0.2887          0.6804E+06
   6878      1     88     61      0.2998          0.6804E+06
   6879      1     88     62      0.3118          0.6804E+06
   6880      1     88     63      0.3173          0.6804E+06
   6881      1     88     64      0.3178          0.6804E+06
   6882      1     88     65      0.3156          0.6804E+06
   6883      1     88     66      0.3146          0.6804E+06
   6884      1     88     67      0.3147          0.6804E+06
   6885      1     88     68      0.3162          0.6804E+06
   6886      1     88     69      0.3191          0.6804E+06
   6887      1     88     70      0.3238          0.6804E+06
   6888      1     88     71      0.3264          0.6804E+06
   6889      1     88     72      0.3279          0.6804E+06
   6890      1     88     73      0.3289          0.6804E+06
   6891      1     88     74      0.3288          0.6804E+06
   6892      1     88     75      0.3285          0.6804E+06
   6893      1     88     76      0.3284          0.6804E+06
   6894      1     88     77      0.3286          0.6804E+06
   6895      1     88     78      0.3293          0.6804E+06
   6896      1     88     79      0.3297          0.6804E+06
   6897      1     88     80      0.3296          0.6804E+06
   6898      1     88     81      0.3292          0.6804E+06
   6899      1     88     82      0.3285          0.6804E+06
   6900      1     88     83      0.3275          0.6804E+06
   6901      1     88     84      0.3266          0.6804E+06
   6902      1     88     85      0.3260          0.6804E+06
   6903      1     88     86      0.3256          0.6804E+06
   6904      1     88     87      0.3256          0.6804E+06
   6905      1     89      1      0.9788          0.6804E+06
   6906      1     89      2      0.9734          0.6804E+06
   6907      1     89      3      0.9686          0.6804E+06
   6908      1     89      4      0.9631          0.6804E+06
   6909      1     89      5      0.9575          0.6804E+06
   6910      1     89      6      0.9523          0.6804E+06
   6911      1     89      7      0.9457          0.6804E+06
   6912      1     89      8      0.9381          0.6804E+06
   6913      1     89      9      0.9303          0.6804E+06
   6914      1     89     10      0.9195          0.6804E+06
   6915      1     89     11      0.9077          0.6804E+06
   6916      1     89     12      0.8887          0.6804E+06
   6917      1     89     13      0.8618          0.6804E+06
   6918      1     89     14      0.8333          0.6804E+06
   6919      1     89     15      0.7980          0.6804E+06
   6920      1     89     16      0.7671          0.6804E+06
   6921      1     89     17      0.7356          0.6804E+06
   6922      1     89     18      0.7101          0.6804E+06
   6923      1     89     19      0.6913          0.6804E+06
   6924      1     89     20      0.6689          0.6804E+06
   6925      1     89     21      0.6418          0.6804E+06
   6926      1     89     22      0.6119          0.6804E+06
   6927      1     89     23      0.5701          0.6804E+06
   6928      1     89     24      0.5286          0.6804E+06
   6929      1     89     25      0.4788          0.6804E+06
   6930      1     89     26      0.4288          0.6804E+06
   6931      1     89     27      0.3868          0.6804E+06
   6932      1     89     28      0.3426          0.6804E+06
   6933      1     89     29      0.3037          0.6804E+06
   6934      1     89     30      0.2753          0.6804E+06
   6935      1     89     31      0.2495          0.6804E+06
   6936      1     89     32      0.2314          0.6804E+06
   6937      1     89     33      0.2139          0.6804E+06
   6938      1     89     34      0.2005          0.6804E+06
   6939      1     89     35      0.1911          0.6804E+06
   6940      1     89     36      0.1828          0.6804E+06
   6941      1     89     37      0.1782          0.6804E+06
   6942      1     89     38      0.1789          0.6804E+06
   6943      1     89     39      0.1800          0.6804E+06
   6944      1     89     40      0.1795          0.6804E+06
   6945      1     89     41      0.1821          0.6804E+06
   6946      1     89     42      0.1886          0.6804E+06
   6947      1     89     43      0.1959          0.6804E+06
   6948      1     89     44      0.2050          0.6804E+06
   6949      1     89     45      0.2122          0.6804E+06
   6950      1     89     46      0.2153          0.6804E+06
   6951      1     89     47      0.2153          0.6804E+06
   6952      1     89     48      0.2123          0.6804E+06
   6953      1     89     49      0.2086          0.6804E+06
   6954      1     89     50      0.2041          0.6804E+06
   6955      1     89     51      0.2053          0.6804E+06
   6956      1     89     52      0.2126          0.6804E+06
   6957      1     89     53      0.2234          0.6804E+06
   6958      1     89     54      0.2364          0.6804E+06
   6959      1     89     55      0.2481          0.6804E+06
   6960      1     89     56      0.2582          0.6804E+06
   6961      1     89     57      0.2700          0.6804E+06
   6962      1     89     58      0.2796          0.6804E+06
   6963      1     89     59      0.2877          0.6804E+06
   6964      1     89     60      0.2975          0.6804E+06
   6965      1     89     61      0.3061          0.6804E+06
   6966      1     89     62      0.3147          0.6804E+06
   6967      1     89     63      0.3195          0.6804E+06
   6968      1     89     64      0.3208          0.6804E+06
   6969      1     89     65      0.3200          0.6804E+06
   6970      1     89     66      0.3195          0.6804E+06
   6971      1     89     67      0.3194          0.6804E+06
   6972      1     89     68      0.3205          0.6804E+06
   6973      1     89     69      0.3225          0.6804E+06
   6974      1     89     70      0.3248          0.6804E+06
   6975      1     89     71      0.3277          0.6804E+06
   6976      1     89     72      0.3289          0.6804E+06
   6977      1     89     73      0.3285          0.6804E+06
   6978      1     89     74      0.3274          0.6804E+06
   6979      1     89     75      0.3258          0.6804E+06
   6980      1     89     76      0.3249          0.6804E+06
   6981      1     89     77      0.3253          0.6804E+06
   6982      1     89     78      0.3267          0.6804E+06
   6983      1     89     79      0.3277          0.6804E+06
   6984      1     89     80      0.3281          0.6804E+06
   6985      1     89     81      0.3280          0.6804E+06
   6986      1     89     82      0.3276          0.6804E+06
   6987      1     89     83      0.3269          0.6804E+06
   6988      1     89     84      0.3262          0.6804E+06
   6989      1     89     85      0.3258          0.6804E+06
   6990      1     89     86      0.3255          0.6804E+06
   6991      1     89     87      0.3256          0.6804E+06
   6992      1     89     88      0.3261          0.6804E+06
   6993      1     89     89      0.3270          0.6804E+06
   6994      1     90      1      0.9739          0.6804E+06
   6995      1     90      2      0.9699          0.6804E+06
   6996      1     90      3      0.9659          0.6804E+06
   6997      1     90      4      0.9611          0.6804E+06
   6998      1     90      5      0.9560          0.6804E+06
   6999      1     90      6      0.9509          0.6804E+06
   7000      1     90      7      0.9442          0.6804E+06
   7001      1     90      8      0.9366          0.6804E+06
   7002      1     90      9      0.9287          0.6804E+06
   7003      1     90     10      0.9177          0.6804E+06
   7004      1     90     11      0.9057          0.6804E+06
   7005      1     90     12      0.8879          0.6804E+06
   7006      1     90     13      0.8653          0.6804E+06
   7007      1     90     14      0.8423          0.6804E+06
   7008      1     90     15      0.8140          0.6804E+06
   7009      1     90     16      0.7890          0.6804E+06
   7010      1     90     17      0.7619          0.6804E+06
   7011      1     90     18      0.7371          0.6804E+06
   7012      1     90     19      0.7163          0.6804E+06
   7013      1     90     20      0.6912          0.6804E+06
   7014      1     90     21      0.6620          0.6804E+06
   7015      1     90     22      0.6315          0.6804E+06
   7016      1     90     23      0.5898          0.6804E+06
   7017      1     90     24      0.5492          0.6804E+06
   7018      1     90     25      0.5003          0.6804E+06
   7019      1     90     26      0.4506          0.6804E+06
   7020      1     90     27      0.4083          0.6804E+06
   7021      1     90     28      0.3635          0.6804E+06
   7022      1     90     29      0.3235          0.6804E+06
   7023      1     90     30      0.2953          0.6804E+06
   7024      1     90     31      0.2710          0.6804E+06
   7025      1     90     32      0.2540          0.6804E+06
   7026      1     90     33      0.2382          0.6804E+06
   7027      1     90     34      0.2267          0.6804E+06
   7028      1     90     35      0.2191          0.6804E+06
   7029      1     90     36      0.2127          0.6804E+06
   7030      1     90     37      0.2097          0.6804E+06
   7031      1     90     38      0.2106          0.6804E+06
   7032      1     90     39      0.2137          0.6804E+06
   7033      1     90     40      0.2179          0.6804E+06
   7034      1     90     41      0.2216          0.6804E+06
   7035      1     90     42      0.2263          0.6804E+06
   7036      1     90     43      0.2315          0.6804E+06
   7037      1     90     44      0.2384          0.6804E+06
   7038      1     90     45      0.2435          0.6804E+06
   7039      1     90     46      0.2461          0.6804E+06
   7040      1     90     47      0.2474          0.6804E+06
   7041      1     90     48      0.2468          0.6804E+06
   7042      1     90     49      0.2453          0.6804E+06
   7043      1     90     50      0.2441          0.6804E+06
   7044      1     90     51      0.2455          0.6804E+06
   7045      1     90     52      0.2496          0.6804E+06
   7046      1     90     53      0.2556          0.6804E+06
   7047      1     90     54      0.2638          0.6804E+06
   7048      1     90     55      0.2718          0.6804E+06
   7049      1     90     56      0.2789          0.6804E+06
   7050      1     90     57      0.2874          0.6804E+06
   7051      1     90     58      0.2943          0.6804E+06
   7052      1     90     59      0.2996          0.6804E+06
   7053      1     90     60      0.3058          0.6804E+06
   7054      1     90     61      0.3115          0.6804E+06
   7055      1     90     62      0.3165          0.6804E+06
   7056      1     90     63      0.3203          0.6804E+06
   7057      1     90     64      0.3223          0.6804E+06
   7058      1     90     65      0.3230          0.6804E+06
   7059      1     90     66      0.3234          0.6804E+06
   7060      1     90     67      0.3240          0.6804E+06
   7061      1     90     68      0.3250          0.6804E+06
   7062      1     90     69      0.3260          0.6804E+06
   7063      1     90     70      0.3269          0.6804E+06
   7064      1     90     71      0.3282          0.6804E+06
   7065      1     90     72      0.3284          0.6804E+06
   7066      1     90     73      0.3275          0.6804E+06
   7067      1     90     74      0.3264          0.6804E+06
   7068      1     90     75      0.3236          0.6804E+06
   7069      1     90     76      0.3221          0.6804E+06
   7070      1     90     77      0.3227          0.6804E+06
   7071      1     90     78      0.3248          0.6804E+06
   7072      1     90     79      0.3262          0.6804E+06
   7073      1     90     80      0.3268          0.6804E+06
   7074      1     90     81      0.3270          0.6804E+06
   7075      1     90     82      0.3267          0.6804E+06
   7076      1     90     83      0.3262          0.6804E+06
   7077      1     90     84      0.3256          0.6804E+06
   7078      1     90     85      0.3252          0.6804E+06
   7079      1     90     86      0.3250          0.6804E+06
   7080      1     90     87      0.3252          0.6804E+06
   7081      1     90     88      0.3258          0.6804E+06
   7082      1     90     89      0.3269          0.6804E+06
   7083      1     90     90      0.3285          0.6804E+06
   7084      1     91      1      0.9689          0.6804E+06
   7085      1     91      2      0.9659          0.6804E+06
   7086      1     91      3      0.9626          0.6804E+06
   7087      1     91      4      0.9584          0.6804E+06
   7088      1     91      5      0.9534          0.6804E+06
   7089      1     91      6      0.9484          0.6804E+06
   7090      1     91      7      0.9417          0.6804E+06
   7091      1     91      8      0.9340          0.6804E+06
   7092      1     91      9      0.9260          0.6804E+06
   7093      1     91     10      0.9152          0.6804E+06
   7094      1     91     11      0.9036          0.6804E+06
   7095      1     91     12      0.8874          0.6804E+06
   7096      1     91     13      0.8679          0.6804E+06
   7097      1     91     14      0.8487          0.6804E+06
   7098      1     91     15      0.8256          0.6804E+06
   7099      1     91     16      0.8052          0.6804E+06
   7100      1     91     17      0.7816          0.6804E+06
   7101      1     91     18      0.7580          0.6804E+06
   7102      1     91     19      0.7369          0.6804E+06
   7103      1     91     20      0.7109          0.6804E+06
   7104      1     91     21      0.6811          0.6804E+06
   7105      1     91     22      0.6502          0.6804E+06
   7106      1     91     23      0.6081          0.6804E+06
   7107      1     91     24      0.5674          0.6804E+06
   7108      1     91     25      0.5184          0.6804E+06
   7109      1     91     26      0.4685          0.6804E+06
   7110      1     91     27      0.4259          0.6804E+06
   7111      1     91     28      0.3806          0.6804E+06
   7112      1     91     29      0.3400          0.6804E+06
   7113      1     91     30      0.3121          0.6804E+06
   7114      1     91     31      0.2892          0.6804E+06
   7115      1     91     32      0.2736          0.6804E+06
   7116      1     91     33      0.2599          0.6804E+06
   7117      1     91     34      0.2504          0.6804E+06
   7118      1     91     35      0.2444          0.6804E+06
   7119      1     91     36      0.2399          0.6804E+06
   7120      1     91     37      0.2383          0.6804E+06
   7121      1     91     38      0.2396          0.6804E+06
   7122      1     91     39      0.2443          0.6804E+06
   7123      1     91     40      0.2520          0.6804E+06
   7124      1     91     41      0.2567          0.6804E+06
   7125      1     91     42      0.2604          0.6804E+06
   7126      1     91     43      0.2640          0.6804E+06
   7127      1     91     44      0.2685          0.6804E+06
   7128      1     91     45      0.2719          0.6804E+06
   7129      1     91     46      0.2739          0.6804E+06
   7130      1     91     47      0.2766          0.6804E+06
   7131      1     91     48      0.2786          0.6804E+06
   7132      1     91     49      0.2793          0.6804E+06
   7133      1     91     50      0.2799          0.6804E+06
   7134      1     91     51      0.2810          0.6804E+06
   7135      1     91     52      0.2824          0.6804E+06
   7136      1     91     53      0.2847          0.6804E+06
   7137      1     91     54      0.2888          0.6804E+06
   7138      1     91     55      0.2931          0.6804E+06
   7139      1     91     56      0.2974          0.6804E+06
   7140      1     91     57      0.3030          0.6804E+06
   7141      1     91     58      0.3070          0.6804E+06
   7142      1     91     59      0.3095          0.6804E+06
   7143      1     91     60      0.3125          0.6804E+06
   7144      1     91     61      0.3158          0.6804E+06
   7145      1     91     62      0.3181          0.6804E+06
   7146      1     91     63      0.3209          0.6804E+06
   7147      1     91     64      0.3233          0.6804E+06
   7148      1     91     65      0.3249          0.6804E+06
   7149      1     91     66      0.3261          0.6804E+06
   7150      1     91     67      0.3273          0.6804E+06
   7151      1     91     68      0.3282          0.6804E+06
   7152      1     91     69      0.3286          0.6804E+06
   7153      1     91     70      0.3291          0.6804E+06
   7154      1     91     71      0.3293          0.6804E+06
   7155      1     91     72      0.3290          0.6804E+06
   7156      1     91     73      0.3280          0.6804E+06
   7157      1     91     74      0.3266          0.6804E+06
   7158      1     91     75      0.3243          0.6804E+06
   7159      1     91     76      0.3230          0.6804E+06
   7160      1     91     77      0.3235          0.6804E+06
   7161      1     91     78      0.3249          0.6804E+06
   7162      1     91     79      0.3259          0.6804E+06
   7163      1     91     80      0.3264          0.6804E+06
   7164      1     91     81      0.3265          0.6804E+06
   7165      1     91     82      0.3261          0.6804E+06
   7166      1     91     83      0.3256          0.6804E+06
   7167      1     91     84      0.3249          0.6804E+06
   7168      1     91     85      0.3245          0.6804E+06
   7169      1     91     86      0.3243          0.6804E+06
   7170      1     91     87      0.3246          0.6804E+06
   7171      1     91     88      0.3253          0.6804E+06
   7172      1     91     89      0.3266          0.6804E+06
   7173      1     91     90      0.3282          0.6804E+06
   7174      1     91     91      0.3299          0.6804E+06
   7175      1     91     92      0.3321          0.6804E+06
   7176      1     92      1      0.9627          0.6804E+06
   7177      1     92      2      0.9605          0.6804E+06
   7178      1     92      3      0.9579          0.6804E+06
   7179      1     92      4      0.9542          0.6804E+06
   7180      1     92      5      0.9495          0.6804E+06
   7181      1     92      6      0.9444          0.6804E+06
   7182      1     92      7      0.9378          0.6804E+06
   7183      1     92      8      0.9299          0.6804E+06
   7184      1     92      9      0.9220          0.6804E+06
   7185      1     92     10      0.9115          0.6804E+06
   7186      1     92     11      0.9007          0.6804E+06
   7187      1     92     12      0.8862          0.6804E+06
   7188      1     92     13      0.8697          0.6804E+06
   7189      1     92     14      0.8541          0.6804E+06
   7190      1     92     15      0.8356          0.6804E+06
   7191      1     92     16      0.8195          0.6804E+06
   7192      1     92     17      0.7996          0.6804E+06
   7193      1     92     18      0.7781          0.6804E+06
   7194      1     92     19      0.7577          0.6804E+06
   7195      1     92     20      0.7324          0.6804E+06
   7196      1     92     21      0.7030          0.6804E+06
   7197      1     92     22      0.6722          0.6804E+06
   7198      1     92     23      0.6297          0.6804E+06
   7199      1     92     24      0.5885          0.6804E+06
   7200      1     92     25      0.5389          0.6804E+06
   7201      1     92     26      0.4881          0.6804E+06
   7202      1     92     27      0.4449          0.6804E+06
   7203      1     92     28      0.3993          0.6804E+06
   7204      1     92     29      0.3600          0.6804E+06
   7205      1     92     30      0.3327          0.6804E+06
   7206      1     92     31      0.3104          0.6804E+06
   7207      1     92     32      0.2964          0.6804E+06
   7208      1     92     33      0.2851          0.6804E+06
   7209      1     92     34      0.2779          0.6804E+06
   7210      1     92     35      0.2738          0.6804E+06
   7211      1     92     36      0.2714          0.6804E+06
   7212      1     92     37      0.2714          0.6804E+06
   7213      1     92     38      0.2739          0.6804E+06
   7214      1     92     39      0.2796          0.6804E+06
   7215      1     92     40      0.2885          0.6804E+06
   7216      1     92     41      0.2952          0.6804E+06
   7217      1     92     42      0.2989          0.6804E+06
   7218      1     92     43      0.3008          0.6804E+06
   7219      1     92     44      0.3028          0.6804E+06
   7220      1     92     45      0.3046          0.6804E+06
   7221      1     92     46      0.3067          0.6804E+06
   7222      1     92     47      0.3110          0.6804E+06
   7223      1     92     48      0.3152          0.6804E+06
   7224      1     92     49      0.3181          0.6804E+06
   7225      1     92     50      0.3204          0.6804E+06
   7226      1     92     51      0.3210          0.6804E+06
   7227      1     92     52      0.3190          0.6804E+06
   7228      1     92     53      0.3173          0.6804E+06
   7229      1     92     54      0.3168          0.6804E+06
   7230      1     92     55      0.3168          0.6804E+06
   7231      1     92     56      0.3176          0.6804E+06
   7232      1     92     57      0.3197          0.6804E+06
   7233      1     92     58      0.3200          0.6804E+06
   7234      1     92     59      0.3200          0.6804E+06
   7235      1     92     60      0.3205          0.6804E+06
   7236      1     92     61      0.3210          0.6804E+06
   7237      1     92     62      0.3209          0.6804E+06
   7238      1     92     63      0.3228          0.6804E+06
   7239      1     92     64      0.3253          0.6804E+06
   7240      1     92     65      0.3272          0.6804E+06
   7241      1     92     66      0.3291          0.6804E+06
   7242      1     92     67      0.3303          0.6804E+06
   7243      1     92     68      0.3310          0.6804E+06
   7244      1     92     69      0.3313          0.6804E+06
   7245      1     92     70      0.3317          0.6804E+06
   7246      1     92     71      0.3314          0.6804E+06
   7247      1     92     72      0.3308          0.6804E+06
   7248      1     92     73      0.3298          0.6804E+06
   7249      1     92     74      0.3284          0.6804E+06
   7250      1     92     75      0.3269          0.6804E+06
   7251      1     92     76      0.3260          0.6804E+06
   7252      1     92     77      0.3260          0.6804E+06
   7253      1     92     78      0.3264          0.6804E+06
   7254      1     92     79      0.3267          0.6804E+06
   7255      1     92     80      0.3267          0.6804E+06
   7256      1     92     81      0.3264          0.6804E+06
   7257      1     92     82      0.3257          0.6804E+06
   7258      1     92     83      0.3250          0.6804E+06
   7259      1     92     84      0.3241          0.6804E+06
   7260      1     92     85      0.3235          0.6804E+06
   7261      1     92     86      0.3231          0.6804E+06
   7262      1     92     87      0.3235          0.6804E+06
   7263      1     92     88      0.3244          0.6804E+06
   7264      1     92     89      0.3259          0.6804E+06
   7265      1     92     90      0.3278          0.6804E+06
   7266      1     92     91      0.3296          0.6804E+06
   7267      1     92     92      0.3319          0.6804E+06
   7268      1     92     93      0.3339          0.6804E+06
   7269      1     93      1      0.9559          0.6804E+06
   7270      1     93      2      0.9544          0.6804E+06
   7271      1     93      3      0.9525          0.6804E+06
   7272      1     93      4      0.9491          0.6804E+06
   7273      1     93      5      0.9445          0.6804E+06
   7274      1     93      6      0.9395          0.6804E+06
   7275      1     93      7      0.9328          0.6804E+06
   7276      1     93      8      0.9249          0.6804E+06
   7277      1     93      9      0.9172          0.6804E+06
   7278      1     93     10      0.9072          0.6804E+06
   7279      1     93     11      0.8971          0.6804E+06
   7280      1     93     12      0.8842          0.6804E+06
   7281      1     93     13      0.8700          0.6804E+06
   7282      1     93     14      0.8569          0.6804E+06
   7283      1     93     15      0.8417          0.6804E+06
   7284      1     93     16      0.8285          0.6804E+06
   7285      1     93     17      0.8120          0.6804E+06
   7286      1     93     18      0.7934          0.6804E+06
   7287      1     93     19      0.7755          0.6804E+06
   7288      1     93     20      0.7525          0.6804E+06
   7289      1     93     21      0.7246          0.6804E+06
   7290      1     93     22      0.6946          0.6804E+06
   7291      1     93     23      0.6521          0.6804E+06
   7292      1     93     24      0.6101          0.6804E+06
   7293      1     93     25      0.5593          0.6804E+06
   7294      1     93     26      0.5072          0.6804E+06
   7295      1     93     27      0.4626          0.6804E+06
   7296      1     93     28      0.4159          0.6804E+06
   7297      1     93     29      0.3769          0.6804E+06
   7298      1     93     30      0.3506          0.6804E+06
   7299      1     93     31      0.3302          0.6804E+06
   7300      1     93     32      0.3185          0.6804E+06
   7301      1     93     33      0.3097          0.6804E+06
   7302      1     93     34      0.3048          0.6804E+06
   7303      1     93     35      0.3025          0.6804E+06
   7304      1     93     36      0.3019          0.6804E+06
   7305      1     93     37      0.3036          0.6804E+06
   7306      1     93     38      0.3071          0.6804E+06
   7307      1     93     39      0.3130          0.6804E+06
   7308      1     93     40      0.3204          0.6804E+06
   7309      1     93     41      0.3299          0.6804E+06
   7310      1     93     42      0.3346          0.6804E+06
   7311      1     93     43      0.3353          0.6804E+06
   7312      1     93     44      0.3355          0.6804E+06
   7313      1     93     45      0.3362          0.6804E+06
   7314      1     93     46      0.3385          0.6804E+06
   7315      1     93     47      0.3434          0.6804E+06
   7316      1     93     48      0.3483          0.6804E+06
   7317      1     93     49      0.3538          0.6804E+06
   7318      1     93     50      0.3589          0.6804E+06
   7319      1     93     51      0.3592          0.6804E+06
   7320      1     93     52      0.3522          0.6804E+06
   7321      1     93     53      0.3466          0.6804E+06
   7322      1     93     54      0.3418          0.6804E+06
   7323      1     93     55      0.3380          0.6804E+06
   7324      1     93     56      0.3356          0.6804E+06
   7325      1     93     57      0.3334          0.6804E+06
   7326      1     93     58      0.3311          0.6804E+06
   7327      1     93     59      0.3297          0.6804E+06
   7328      1     93     60      0.3289          0.6804E+06
   7329      1     93     61      0.3280          0.6804E+06
   7330      1     93     62      0.3271          0.6804E+06
   7331      1     93     63      0.3278          0.6804E+06
   7332      1     93     64      0.3291          0.6804E+06
   7333      1     93     65      0.3306          0.6804E+06
   7334      1     93     66      0.3319          0.6804E+06
   7335      1     93     67      0.3330          0.6804E+06
   7336      1     93     68      0.3337          0.6804E+06
   7337      1     93     69      0.3340          0.6804E+06
   7338      1     93     70      0.3342          0.6804E+06
   7339      1     93     71      0.3339          0.6804E+06
   7340      1     93     72      0.3333          0.6804E+06
   7341      1     93     73      0.3325          0.6804E+06
   7342      1     93     74      0.3315          0.6804E+06
   7343      1     93     75      0.3306          0.6804E+06
   7344      1     93     76      0.3297          0.6804E+06
   7345      1     93     77      0.3292          0.6804E+06
   7346      1     93     78      0.3287          0.6804E+06
   7347      1     93     79      0.3281          0.6804E+06
   7348      1     93     80      0.3275          0.6804E+06
   7349      1     93     81      0.3267          0.6804E+06
   7350      1     93     82      0.3256          0.6804E+06
   7351      1     93     83      0.3246          0.6804E+06
   7352      1     93     84      0.3234          0.6804E+06
   7353      1     93     85      0.3224          0.6804E+06
   7354      1     93     86      0.3218          0.6804E+06
   7355      1     93     87      0.3221          0.6804E+06
   7356      1     93     88      0.3232          0.6804E+06
   7357      1     93     89      0.3250          0.6804E+06
   7358      1     93     90      0.3272          0.6804E+06
   7359      1     93     91      0.3292          0.6804E+06
   7360      1     93     92      0.3316          0.6804E+06
   7361      1     93     93      0.3337          0.6804E+06
   7362      1     93     94      0.3360          0.6804E+06
   7363      1     94      1      0.9497          0.6804E+06
   7364      1     94      2      0.9487          0.6804E+06
   7365      1     94      3      0.9471          0.6804E+06
   7366      1     94      4      0.9441          0.6804E+06
   7367      1     94      5      0.9394          0.6804E+06
   7368      1     94      6      0.9342          0.6804E+06
   7369      1     94      7      0.9275          0.6804E+06
   7370      1     94      8      0.9198          0.6804E+06
   7371      1     94      9      0.9122          0.6804E+06
   7372      1     94     10      0.9027          0.6804E+06
   7373      1     94     11      0.8932          0.6804E+06
   7374      1     94     12      0.8813          0.6804E+06
   7375      1     94     13      0.8686          0.6804E+06
   7376      1     94     14      0.8571          0.6804E+06
   7377      1     94     15      0.8437          0.6804E+06
   7378      1     94     16      0.8321          0.6804E+06
   7379      1     94     17      0.8181          0.6804E+06
   7380      1     94     18      0.8030          0.6804E+06
   7381      1     94     19      0.7884          0.6804E+06
   7382      1     94     20      0.7688          0.6804E+06
   7383      1     94     21      0.7437          0.6804E+06
   7384      1     94     22      0.7152          0.6804E+06
   7385      1     94     23      0.6724          0.6804E+06
   7386      1     94     24      0.6295          0.6804E+06
   7387      1     94     25      0.5774          0.6804E+06
   7388      1     94     26      0.5238          0.6804E+06
   7389      1     94     27      0.4776          0.6804E+06
   7390      1     94     28      0.4286          0.6804E+06
   7391      1     94     29      0.3889          0.6804E+06
   7392      1     94     30      0.3637          0.6804E+06
   7393      1     94     31      0.3467          0.6804E+06
   7394      1     94     32      0.3378          0.6804E+06
   7395      1     94     33      0.3315          0.6804E+06
   7396      1     94     34      0.3285          0.6804E+06
   7397      1     94     35      0.3276          0.6804E+06
   7398      1     94     36      0.3281          0.6804E+06
   7399      1     94     37      0.3308          0.6804E+06
   7400      1     94     38      0.3351          0.6804E+06
   7401      1     94     39      0.3412          0.6804E+06
   7402      1     94     40      0.3483          0.6804E+06
   7403      1     94     41      0.3568          0.6804E+06
   7404      1     94     42      0.3610          0.6804E+06
   7405      1     94     43      0.3617          0.6804E+06
   7406      1     94     44      0.3616          0.6804E+06
   7407      1     94     45      0.3620          0.6804E+06
   7408      1     94     46      0.3637          0.6804E+06
   7409      1     94     47      0.3677          0.6804E+06
   7410      1     94     48      0.3726          0.6804E+06
   7411      1     94     49      0.3801          0.6804E+06
   7412      1     94     50      0.3870          0.6804E+06
   7413      1     94     51      0.3869          0.6804E+06
   7414      1     94     52      0.3765          0.6804E+06
   7415      1     94     53      0.3684          0.6804E+06
   7416      1     94     54      0.3607          0.6804E+06
   7417      1     94     55      0.3541          0.6804E+06
   7418      1     94     56      0.3492          0.6804E+06
   7419      1     94     57      0.3444          0.6804E+06
   7420      1     94     58      0.3404          0.6804E+06
   7421      1     94     59      0.3378          0.6804E+06
   7422      1     94     60      0.3359          0.6804E+06
   7423      1     94     61      0.3342          0.6804E+06
   7424      1     94     62      0.3328          0.6804E+06
   7425      1     94     63      0.3326          0.6804E+06
   7426      1     94     64      0.3331          0.6804E+06
   7427      1     94     65      0.3337          0.6804E+06
   7428      1     94     66      0.3346          0.6804E+06
   7429      1     94     67      0.3354          0.6804E+06
   7430      1     94     68      0.3359          0.6804E+06
   7431      1     94     69      0.3361          0.6804E+06
   7432      1     94     70      0.3363          0.6804E+06
   7433      1     94     71      0.3361          0.6804E+06
   7434      1     94     72      0.3357          0.6804E+06
   7435      1     94     73      0.3351          0.6804E+06
   7436      1     94     74      0.3345          0.6804E+06
   7437      1     94     75      0.3338          0.6804E+06
   7438      1     94     76      0.3330          0.6804E+06
   7439      1     94     77      0.3322          0.6804E+06
   7440      1     94     78      0.3310          0.6804E+06
   7441      1     94     79      0.3297          0.6804E+06
   7442      1     94     80      0.3286          0.6804E+06
   7443      1     94     81      0.3272          0.6804E+06
   7444      1     94     82      0.3258          0.6804E+06
   7445      1     94     83      0.3244          0.6804E+06
   7446      1     94     84      0.3229          0.6804E+06
   7447      1     94     85      0.3217          0.6804E+06
   7448      1     94     86      0.3206          0.6804E+06
   7449      1     94     87      0.3210          0.6804E+06
   7450      1     94     88      0.3223          0.6804E+06
   7451      1     94     89      0.3244          0.6804E+06
   7452      1     94     90      0.3268          0.6804E+06
   7453      1     94     91      0.3289          0.6804E+06
   7454      1     94     92      0.3314          0.6804E+06
   7455      1     94     93      0.3335          0.6804E+06
   7456      1     94     94      0.3359          0.6804E+06
   7457      1     94     95      0.3382          0.6804E+06
   7458      1     95      1      0.9422          0.6804E+06
   7459      1     95      2      0.9414          0.6804E+06
   7460      1     95      3      0.9400          0.6804E+06
   7461      1     95      4      0.9371          0.6804E+06
   7462      1     95      5      0.9325          0.6804E+06
   7463      1     95      6      0.9274          0.6804E+06
   7464      1     95      7      0.9208          0.6804E+06
   7465      1     95      8      0.9132          0.6804E+06
   7466      1     95      9      0.9059          0.6804E+06
   7467      1     95     10      0.8967          0.6804E+06
   7468      1     95     11      0.8878          0.6804E+06
   7469      1     95     12      0.8768          0.6804E+06
   7470      1     95     13      0.8652          0.6804E+06
   7471      1     95     14      0.8549          0.6804E+06
   7472      1     95     15      0.8430          0.6804E+06
   7473      1     95     16      0.8330          0.6804E+06
   7474      1     95     17      0.8218          0.6804E+06
   7475      1     95     18      0.8105          0.6804E+06
   7476      1     95     19      0.8000          0.6804E+06
   7477      1     95     20      0.7858          0.6804E+06
   7478      1     95     21      0.7657          0.6804E+06
   7479      1     95     22      0.7398          0.6804E+06
   7480      1     95     23      0.6957          0.6804E+06
   7481      1     95     24      0.6515          0.6804E+06
   7482      1     95     25      0.5984          0.6804E+06
   7483      1     95     26      0.5435          0.6804E+06
   7484      1     95     27      0.4956          0.6804E+06
   7485      1     95     28      0.4432          0.6804E+06
   7486      1     95     29      0.4017          0.6804E+06
   7487      1     95     30      0.3778          0.6804E+06
   7488      1     95     31      0.3667          0.6804E+06
   7489      1     95     32      0.3613          0.6804E+06
   7490      1     95     33      0.3575          0.6804E+06
   7491      1     95     34      0.3560          0.6804E+06
   7492      1     95     35      0.3560          0.6804E+06
   7493      1     95     36      0.3573          0.6804E+06
   7494      1     95     37      0.3605          0.6804E+06
   7495      1     95     38      0.3650          0.6804E+06
   7496      1     95     39      0.3712          0.6804E+06
   7497      1     95     40      0.3777          0.6804E+06
   7498      1     95     41      0.3847          0.6804E+06
   7499      1     95     42      0.3880          0.6804E+06
   7500      1     95     43      0.3881          0.6804E+06
   7501      1     95     44      0.3875          0.6804E+06
   7502      1     95     45      0.3875          0.6804E+06
   7503      1     95     46      0.3888          0.6804E+06
   7504      1     95     47      0.3922          0.6804E+06
   7505      1     95     48      0.3963          0.6804E+06
   7506      1     95     49      0.4018          0.6804E+06
   7507      1     95     50      0.4055          0.6804E+06
   7508      1     95     51      0.4043          0.6804E+06
   7509      1     95     52      0.3957          0.6804E+06
   7510      1     95     53      0.3872          0.6804E+06
   7511      1     95     54      0.3780          0.6804E+06
   7512      1     95     55      0.3691          0.6804E+06
   7513      1     95     56      0.3620          0.6804E+06
   7514      1     95     57      0.3559          0.6804E+06
   7515      1     95     58      0.3505          0.6804E+06
   7516      1     95     59      0.3467          0.6804E+06
   7517      1     95     60      0.3433          0.6804E+06
   7518      1     95     61      0.3408          0.6804E+06
   7519      1     95     62      0.3386          0.6804E+06
   7520      1     95     63      0.3376          0.6804E+06
   7521      1     95     64      0.3375          0.6804E+06
   7522      1     95     65      0.3375          0.6804E+06
   7523      1     95     66      0.3378          0.6804E+06
   7524      1     95     67      0.3380          0.6804E+06
   7525      1     95     68      0.3383          0.6804E+06
   7526      1     95     69      0.3384          0.6804E+06
   7527      1     95     70      0.3385          0.6804E+06
   7528      1     95     71      0.3384          0.6804E+06
   7529      1     95     72      0.3382          0.6804E+06
   7530      1     95     73      0.3380          0.6804E+06
   7531      1     95     74      0.3378          0.6804E+06
   7532      1     95     75      0.3375          0.6804E+06
   7533      1     95     76      0.3367          0.6804E+06
   7534      1     95     77      0.3355          0.6804E+06
   7535      1     95     78      0.3336          0.6804E+06
   7536      1     95     79      0.3317          0.6804E+06
   7537      1     95     80      0.3300          0.6804E+06
   7538      1     95     81      0.3280          0.6804E+06
   7539      1     95     82      0.3262          0.6804E+06
   7540      1     95     83      0.3246          0.6804E+06
   7541      1     95     84      0.3228          0.6804E+06
   7542      1     95     85      0.3213          0.6804E+06
   7543      1     95     86      0.3198          0.6804E+06
   7544      1     95     87      0.3202          0.6804E+06
   7545      1     95     88      0.3217          0.6804E+06
   7546      1     95     89      0.3240          0.6804E+06
   7547      1     95     90      0.3264          0.6804E+06
   7548      1     95     91      0.3286          0.6804E+06
   7549      1     95     92      0.3311          0.6804E+06
   7550      1     95     93      0.3333          0.6804E+06
   7551      1     95     94      0.3357          0.6804E+06
   7552      1     95     95      0.3381          0.6804E+06
   7553      1     96      1      0.9344          0.6804E+06
   7554      1     96      2      0.9335          0.6804E+06
   7555      1     96      3      0.9320          0.6804E+06
   7556      1     96      4      0.9291          0.6804E+06
   7557      1     96      5      0.9246          0.6804E+06
   7558      1     96      6      0.9197          0.6804E+06
   7559      1     96      7      0.9134          0.6804E+06
   7560      1     96      8      0.9060          0.6804E+06
   7561      1     96      9      0.8989          0.6804E+06
   7562      1     96     10      0.8900          0.6804E+06
   7563      1     96     11      0.8815          0.6804E+06
   7564      1     96     12      0.8710          0.6804E+06
   7565      1     96     13      0.8602          0.6804E+06
   7566      1     96     14      0.8505          0.6804E+06
   7567      1     96     15      0.8396          0.6804E+06
   7568      1     96     16      0.8308          0.6804E+06
   7569      1     96     17      0.8220          0.6804E+06
   7570      1     96     18      0.8142          0.6804E+06
   7571      1     96     19      0.8072          0.6804E+06
   7572      1     96     20      0.7978          0.6804E+06
   7573      1     96     21      0.7834          0.6804E+06
   7574      1     96     22      0.7614          0.6804E+06
   7575      1     96     23      0.7161          0.6804E+06
   7576      1     96     24      0.6718          0.6804E+06
   7577      1     96     25      0.6194          0.6804E+06
   7578      1     96     26      0.5651          0.6804E+06
   7579      1     96     27      0.5171          0.6804E+06
   7580      1     96     28      0.4630          0.6804E+06
   7581      1     96     29      0.4201          0.6804E+06
   7582      1     96     30      0.3973          0.6804E+06
   7583      1     96     31      0.3915          0.6804E+06
   7584      1     96     32      0.3882          0.6804E+06
   7585      1     96     33      0.3854          0.6804E+06
   7586      1     96     34      0.3842          0.6804E+06
   7587      1     96     35      0.3842          0.6804E+06
   7588      1     96     36      0.3854          0.6804E+06
   7589      1     96     37      0.3884          0.6804E+06
   7590      1     96     38      0.3926          0.6804E+06
   7591      1     96     39      0.3985          0.6804E+06
   7592      1     96     40      0.4046          0.6804E+06
   7593      1     96     41      0.4106          0.6804E+06
   7594      1     96     42      0.4127          0.6804E+06
   7595      1     96     43      0.4116          0.6804E+06
   7596      1     96     44      0.4096          0.6804E+06
   7597      1     96     45      0.4089          0.6804E+06
   7598      1     96     46      0.4094          0.6804E+06
   7599      1     96     47      0.4117          0.6804E+06
   7600      1     96     48      0.4147          0.6804E+06
   7601      1     96     49      0.4182          0.6804E+06
   7602      1     96     50      0.4196          0.6804E+06
   7603      1     96     51      0.4174          0.6804E+06
   7604      1     96     52      0.4093          0.6804E+06
   7605      1     96     53      0.4006          0.6804E+06
   7606      1     96     54      0.3904          0.6804E+06
   7607      1     96     55      0.3803          0.6804E+06
   7608      1     96     56      0.3727          0.6804E+06
   7609      1     96     57      0.3653          0.6804E+06
   7610      1     96     58      0.3591          0.6804E+06
   7611      1     96     59      0.3544          0.6804E+06
   7612      1     96     60      0.3499          0.6804E+06
   7613      1     96     61      0.3467          0.6804E+06
   7614      1     96     62      0.3438          0.6804E+06
   7615      1     96     63      0.3420          0.6804E+06
   7616      1     96     64      0.3413          0.6804E+06
   7617      1     96     65      0.3410          0.6804E+06
   7618      1     96     66      0.3407          0.6804E+06
   7619      1     96     67      0.3405          0.6804E+06
   7620      1     96     68      0.3405          0.6804E+06
   7621      1     96     69      0.3405          0.6804E+06
   7622      1     96     70      0.3405          0.6804E+06
   7623      1     96     71      0.3404          0.6804E+06
   7624      1     96     72      0.3404          0.6804E+06
   7625      1     96     73      0.3404          0.6804E+06
   7626      1     96     74      0.3405          0.6804E+06
   7627      1     96     75      0.3406          0.6804E+06
   7628      1     96     76      0.3399          0.6804E+06
   7629      1     96     77      0.3382          0.6804E+06
   7630      1     96     78      0.3357          0.6804E+06
   7631      1     96     79      0.3333          0.6804E+06
   7632      1     96     80      0.3312          0.6804E+06
   7633      1     96     81      0.3290          0.6804E+06
   7634      1     96     82      0.3268          0.6804E+06
   7635      1     96     83      0.3250          0.6804E+06
   7636      1     96     84      0.3232          0.6804E+06
   7637      1     96     85      0.3217          0.6804E+06
   7638      1     96     86      0.3206          0.6804E+06
   7639      1     96     87      0.3209          0.6804E+06
   7640      1     96     88      0.3220          0.6804E+06
   7641      1     96     89      0.3241          0.6804E+06
   7642      1     96     90      0.3264          0.6804E+06
   7643      1     96     91      0.3285          0.6804E+06
   7644      1     96     92      0.3309          0.6804E+06
   7645      1     96     93      0.3331          0.6804E+06
   7646      1     96     94      0.3355          0.6804E+06
   7647      1     96     95      0.3377          0.6804E+06
   7648      1     96     96      0.3395          0.6804E+06
   7649      1     97      1      0.9274          0.6804E+06
   7650      1     97      2      0.9264          0.6804E+06
   7651      1     97      3      0.9247          0.6804E+06
   7652      1     97      4      0.9217          0.6804E+06
   7653      1     97      5      0.9173          0.6804E+06
   7654      1     97      6      0.9125          0.6804E+06
   7655      1     97      7      0.9063          0.6804E+06
   7656      1     97      8      0.8991          0.6804E+06
   7657      1     97      9      0.8922          0.6804E+06
   7658      1     97     10      0.8835          0.6804E+06
   7659      1     97     11      0.8753          0.6804E+06
   7660      1     97     12      0.8652          0.6804E+06
   7661      1     97     13      0.8549          0.6804E+06
   7662      1     97     14      0.8456          0.6804E+06
   7663      1     97     15      0.8348          0.6804E+06
   7664      1     97     16      0.8267          0.6804E+06
   7665      1     97     17      0.8195          0.6804E+06
   7666      1     97     18      0.8145          0.6804E+06
   7667      1     97     19      0.8098          0.6804E+06
   7668      1     97     20      0.8023          0.6804E+06
   7669      1     97     21      0.7888          0.6804E+06
   7670      1     97     22      0.7680          0.6804E+06
   7671      1     97     23      0.7275          0.6804E+06
   7672      1     97     24      0.6867          0.6804E+06
   7673      1     97     25      0.6374          0.6804E+06
   7674      1     97     26      0.5863          0.6804E+06
   7675      1     97     27      0.5413          0.6804E+06
   7676      1     97     28      0.4923          0.6804E+06
   7677      1     97     29      0.4532          0.6804E+06
   7678      1     97     30      0.4309          0.6804E+06
   7679      1     97     31      0.4213          0.6804E+06
   7680      1     97     32      0.4162          0.6804E+06
   7681      1     97     33      0.4119          0.6804E+06
   7682      1     97     34      0.4096          0.6804E+06
   7683      1     97     35      0.4088          0.6804E+06
   7684      1     97     36      0.4090          0.6804E+06
   7685      1     97     37      0.4113          0.6804E+06
   7686      1     97     38      0.4148          0.6804E+06
   7687      1     97     39      0.4200          0.6804E+06
   7688      1     97     40      0.4256          0.6804E+06
   7689      1     97     41      0.4308          0.6804E+06
   7690      1     97     42      0.4318          0.6804E+06
   7691      1     97     43      0.4293          0.6804E+06
   7692      1     97     44      0.4260          0.6804E+06
   7693      1     97     45      0.4243          0.6804E+06
   7694      1     97     46      0.4239          0.6804E+06
   7695      1     97     47      0.4250          0.6804E+06
   7696      1     97     48      0.4268          0.6804E+06
   7697      1     97     49      0.4292          0.6804E+06
   7698      1     97     50      0.4297          0.6804E+06
   7699      1     97     51      0.4270          0.6804E+06
   7700      1     97     52      0.4181          0.6804E+06
   7701      1     97     53      0.4087          0.6804E+06
   7702      1     97     54      0.3979          0.6804E+06
   7703      1     97     55      0.3877          0.6804E+06
   7704      1     97     56      0.3799          0.6804E+06
   7705      1     97     57      0.3719          0.6804E+06
   7706      1     97     58      0.3652          0.6804E+06
   7707      1     97     59      0.3601          0.6804E+06
   7708      1     97     60      0.3551          0.6804E+06
   7709      1     97     61      0.3513          0.6804E+06
   7710      1     97     62      0.3479          0.6804E+06
   7711      1     97     63      0.3456          0.6804E+06
   7712      1     97     64      0.3444          0.6804E+06
   7713      1     97     65      0.3436          0.6804E+06
   7714      1     97     66      0.3429          0.6804E+06
   7715      1     97     67      0.3424          0.6804E+06
   7716      1     97     68      0.3422          0.6804E+06
   7717      1     97     69      0.3421          0.6804E+06
   7718      1     97     70      0.3420          0.6804E+06
   7719      1     97     71      0.3419          0.6804E+06
   7720      1     97     72      0.3419          0.6804E+06
   7721      1     97     73      0.3420          0.6804E+06
   7722      1     97     74      0.3421          0.6804E+06
   7723      1     97     75      0.3423          0.6804E+06
   7724      1     97     76      0.3417          0.6804E+06
   7725      1     97     77      0.3397          0.6804E+06
   7726      1     97     78      0.3370          0.6804E+06
   7727      1     97     79      0.3343          0.6804E+06
   7728      1     97     80      0.3321          0.6804E+06
   7729      1     97     81      0.3297          0.6804E+06
   7730      1     97     82      0.3274          0.6804E+06
   7731      1     97     83      0.3256          0.6804E+06
   7732      1     97     84      0.3237          0.6804E+06
   7733      1     97     85      0.3224          0.6804E+06
   7734      1     97     86      0.3216          0.6804E+06
   7735      1     97     87      0.3217          0.6804E+06
   7736      1     97     88      0.3226          0.6804E+06
   7737      1     97     89      0.3243          0.6804E+06
   7738      1     97     90      0.3264          0.6804E+06
   7739      1     97     91      0.3284          0.6804E+06
   7740      1     97     92      0.3308          0.6804E+06
   7741      1     97     93      0.3329          0.6804E+06
   7742      1     97     94      0.3352          0.6804E+06
   7743      1     97     95      0.3373          0.6804E+06
   7744      1     97     96      0.3390          0.6804E+06
   7745      1     97     97      0.3406          0.6804E+06
   7746      1     98      1      0.9196          0.6804E+06
   7747      1     98      2      0.9182          0.6804E+06
   7748      1     98      3      0.9162          0.6804E+06
   7749      1     98      4      0.9130          0.6804E+06
   7750      1     98      5      0.9086          0.6804E+06
   7751      1     98      6      0.9039          0.6804E+06
   7752      1     98      7      0.8978          0.6804E+06
   7753      1     98      8      0.8907          0.6804E+06
   7754      1     98      9      0.8839          0.6804E+06
   7755      1     98     10      0.8756          0.6804E+06
   7756      1     98     11      0.8677          0.6804E+06
   7757      1     98     12      0.8580          0.6804E+06
   7758      1     98     13      0.8481          0.6804E+06
   7759      1     98     14      0.8390          0.6804E+06
   7760      1     98     15      0.8284          0.6804E+06
   7761      1     98     16      0.8207          0.6804E+06
   7762      1     98     17      0.8150          0.6804E+06
   7763      1     98     18      0.8129          0.6804E+06
   7764      1     98     19      0.8101          0.6804E+06
   7765      1     98     20      0.8034          0.6804E+06
   7766      1     98     21      0.7901          0.6804E+06
   7767      1     98     22      0.7705          0.6804E+06
   7768      1     98     23      0.7371          0.6804E+06
   7769      1     98     24      0.7017          0.6804E+06
   7770      1     98     25      0.6577          0.6804E+06
   7771      1     98     26      0.6117          0.6804E+06
   7772      1     98     27      0.5718          0.6804E+06
   7773      1     98     28      0.5301          0.6804E+06
   7774      1     98     29      0.4959          0.6804E+06
   7775      1     98     30      0.4741          0.6804E+06
   7776      1     98     31      0.4599          0.6804E+06
   7777      1     98     32      0.4513          0.6804E+06
   7778      1     98     33      0.4436          0.6804E+06
   7779      1     98     34      0.4386          0.6804E+06
   7780      1     98     35      0.4360          0.6804E+06
   7781      1     98     36      0.4344          0.6804E+06
   7782      1     98     37      0.4350          0.6804E+06
   7783      1     98     38      0.4371          0.6804E+06
   7784      1     98     39      0.4408          0.6804E+06
   7785      1     98     40      0.4448          0.6804E+06
   7786      1     98     41      0.4481          0.6804E+06
   7787      1     98     42      0.4480          0.6804E+06
   7788      1     98     43      0.4451          0.6804E+06
   7789      1     98     44      0.4410          0.6804E+06
   7790      1     98     45      0.4379          0.6804E+06
   7791      1     98     46      0.4363          0.6804E+06
   7792      1     98     47      0.4358          0.6804E+06
   7793      1     98     48      0.4363          0.6804E+06
   7794      1     98     49      0.4374          0.6804E+06
   7795      1     98     50      0.4372          0.6804E+06
   7796      1     98     51      0.4339          0.6804E+06
   7797      1     98     52      0.4242          0.6804E+06
   7798      1     98     53      0.4144          0.6804E+06
   7799      1     98     54      0.4036          0.6804E+06
   7800      1     98     55      0.3936          0.6804E+06
   7801      1     98     56      0.3858          0.6804E+06
   7802      1     98     57      0.3776          0.6804E+06
   7803      1     98     58      0.3704          0.6804E+06
   7804      1     98     59      0.3650          0.6804E+06
   7805      1     98     60      0.3596          0.6804E+06
   7806      1     98     61      0.3556          0.6804E+06
   7807      1     98     62      0.3519          0.6804E+06
   7808      1     98     63      0.3491          0.6804E+06
   7809      1     98     64      0.3474          0.6804E+06
   7810      1     98     65      0.3460          0.6804E+06
   7811      1     98     66      0.3449          0.6804E+06
   7812      1     98     67      0.3442          0.6804E+06
   7813      1     98     68      0.3438          0.6804E+06
   7814      1     98     69      0.3437          0.6804E+06
   7815      1     98     70      0.3435          0.6804E+06
   7816      1     98     71      0.3432          0.6804E+06
   7817      1     98     72      0.3431          0.6804E+06
   7818      1     98     73      0.3431          0.6804E+06
   7819      1     98     74      0.3430          0.6804E+06
   7820      1     98     75      0.3428          0.6804E+06
   7821      1     98     76      0.3418          0.6804E+06
   7822      1     98     77      0.3402          0.6804E+06
   7823      1     98     78      0.3377          0.6804E+06
   7824      1     98     79      0.3351          0.6804E+06
   7825      1     98     80      0.3328          0.6804E+06
   7826      1     98     81      0.3303          0.6804E+06
   7827      1     98     82      0.3280          0.6804E+06
   7828      1     98     83      0.3262          0.6804E+06
   7829      1     98     84      0.3244          0.6804E+06
   7830      1     98     85      0.3231          0.6804E+06
   7831      1     98     86      0.3224          0.6804E+06
   7832      1     98     87      0.3225          0.6804E+06
   7833      1     98     88      0.3232          0.6804E+06
   7834      1     98     89      0.3247          0.6804E+06
   7835      1     98     90      0.3266          0.6804E+06
   7836      1     98     91      0.3284          0.6804E+06
   7837      1     98     92      0.3307          0.6804E+06
   7838      1     98     93      0.3327          0.6804E+06
   7839      1     98     94      0.3349          0.6804E+06
   7840      1     98     95      0.3369          0.6804E+06
   7841      1     98     96      0.3385          0.6804E+06
   7842      1     98     97      0.3400          0.6804E+06
   7843      1     98     98      0.3410          0.6804E+06
   7844      1     99      1      0.9128          0.6804E+06
   7845      1     99      2      0.9111          0.6804E+06
   7846      1     99      3      0.9088          0.6804E+06
   7847      1     99      4      0.9054          0.6804E+06
   7848      1     99      5      0.9008          0.6804E+06
   7849      1     99      6      0.8960          0.6804E+06
   7850      1     99      7      0.8900          0.6804E+06
   7851      1     99      8      0.8831          0.6804E+06
   7852      1     99      9      0.8764          0.6804E+06
   7853      1     99     10      0.8683          0.6804E+06
   7854      1     99     11      0.8607          0.6804E+06
   7855      1     99     12      0.8514          0.6804E+06
   7856      1     99     13      0.8419          0.6804E+06
   7857      1     99     14      0.8333          0.6804E+06
   7858      1     99     15      0.8235          0.6804E+06
   7859      1     99     16      0.8166          0.6804E+06
   7860      1     99     17      0.8120          0.6804E+06
   7861      1     99     18      0.8112          0.6804E+06
   7862      1     99     19      0.8095          0.6804E+06
   7863      1     99     20      0.8038          0.6804E+06
   7864      1     99     21      0.7919          0.6804E+06
   7865      1     99     22      0.7744          0.6804E+06
   7866      1     99     23      0.7453          0.6804E+06
   7867      1     99     24      0.7141          0.6804E+06
   7868      1     99     25      0.6750          0.6804E+06
   7869      1     99     26      0.6339          0.6804E+06
   7870      1     99     27      0.5987          0.6804E+06
   7871      1     99     28      0.5627          0.6804E+06
   7872      1     99     29      0.5323          0.6804E+06
   7873      1     99     30      0.5114          0.6804E+06
   7874      1     99     31      0.4943          0.6804E+06
   7875      1     99     32      0.4823          0.6804E+06
   7876      1     99     33      0.4711          0.6804E+06
   7877      1     99     34      0.4631          0.6804E+06
   7878      1     99     35      0.4583          0.6804E+06
   7879      1     99     36      0.4547          0.6804E+06
   7880      1     99     37      0.4535          0.6804E+06
   7881      1     99     38      0.4540          0.6804E+06
   7882      1     99     39      0.4559          0.6804E+06
   7883      1     99     40      0.4581          0.6804E+06
   7884      1     99     41      0.4595          0.6804E+06
   7885      1     99     42      0.4584          0.6804E+06
   7886      1     99     43      0.4552          0.6804E+06
   7887      1     99     44      0.4509          0.6804E+06
   7888      1     99     45      0.4466          0.6804E+06
   7889      1     99     46      0.4436          0.6804E+06
   7890      1     99     47      0.4416          0.6804E+06
   7891      1     99     48      0.4407          0.6804E+06
   7892      1     99     49      0.4399          0.6804E+06
   7893      1     99     50      0.4379          0.6804E+06
   7894      1     99     51      0.4338          0.6804E+06
   7895      1     99     52      0.4252          0.6804E+06
   7896      1     99     53      0.4165          0.6804E+06
   7897      1     99     54      0.4063          0.6804E+06
   7898      1     99     55      0.3966          0.6804E+06
   7899      1     99     56      0.3890          0.6804E+06
   7900      1     99     57      0.3807          0.6804E+06
   7901      1     99     58      0.3735          0.6804E+06
   7902      1     99     59      0.3680          0.6804E+06
   7903      1     99     60      0.3625          0.6804E+06
   7904      1     99     61      0.3583          0.6804E+06
   7905      1     99     62      0.3545          0.6804E+06
   7906      1     99     63      0.3514          0.6804E+06
   7907      1     99     64      0.3494          0.6804E+06
   7908      1     99     65      0.3476          0.6804E+06
   7909      1     99     66      0.3463          0.6804E+06
   7910      1     99     67      0.3455          0.6804E+06
   7911      1     99     68      0.3449          0.6804E+06
   7912      1     99     69      0.3446          0.6804E+06
   7913      1     99     70      0.3443          0.6804E+06
   7914      1     99     71      0.3441          0.6804E+06
   7915      1     99     72      0.3439          0.6804E+06
   7916      1     99     73      0.3437          0.6804E+06
   7917      1     99     74      0.3434          0.6804E+06
   7918      1     99     75      0.3428          0.6804E+06
   7919      1     99     76      0.3417          0.6804E+06
   7920      1     99     77      0.3402          0.6804E+06
   7921      1     99     78      0.3379          0.6804E+06
   7922      1     99     79      0.3354          0.6804E+06
   7923      1     99     80      0.3332          0.6804E+06
   7924      1     99     81      0.3307          0.6804E+06
   7925      1     99     82      0.3284          0.6804E+06
   7926      1     99     83      0.3266          0.6804E+06
   7927      1     99     84      0.3248          0.6804E+06
   7928      1     99     85      0.3236          0.6804E+06
   7929      1     99     86      0.3229          0.6804E+06
   7930      1     99     87      0.3230          0.6804E+06
   7931      1     99     88      0.3236          0.6804E+06
   7932      1     99     89      0.3249          0.6804E+06
   7933      1     99     90      0.3267          0.6804E+06
   7934      1     99     91      0.3285          0.6804E+06
   7935      1     99     92      0.3307          0.6804E+06
   7936      1     99     93      0.3326          0.6804E+06
   7937      1     99     94      0.3347          0.6804E+06
   7938      1     99     95      0.3366          0.6804E+06
   7939      1     99     96      0.3381          0.6804E+06
   7940      1     99     97      0.3395          0.6804E+06
   7941      1     99     98      0.3405          0.6804E+06
   7942      1     99     99      0.3413          0.6804E+06
   7943      1    100      1      0.9051          0.6804E+06
   7944      1    100      2      0.9029          0.6804E+06
   7945      1    100      3      0.9002          0.6804E+06
   7946      1    100      4      0.8965          0.6804E+06
   7947      1    100      5      0.8917          0.6804E+06
   7948      1    100      6      0.8869          0.6804E+06
   7949      1    100      7      0.8809          0.6804E+06
   7950      1    100      8      0.8741          0.6804E+06
   7951      1    100      9      0.8676          0.6804E+06
   7952      1    100     10      0.8597          0.6804E+06
   7953      1    100     11      0.8523          0.6804E+06
   7954      1    100     12      0.8435          0.6804E+06
   7955      1    100     13      0.8347          0.6804E+06
   7956      1    100     14      0.8270          0.6804E+06
   7957      1    100     15      0.8188          0.6804E+06
   7958      1    100     16      0.8135          0.6804E+06
   7959      1    100     17      0.8102          0.6804E+06
   7960      1    100     18      0.8098          0.6804E+06
   7961      1    100     19      0.8091          0.6804E+06
   7962      1    100     20      0.8053          0.6804E+06
   7963      1    100     21      0.7961          0.6804E+06
   7964      1    100     22      0.7815          0.6804E+06
   7965      1    100     23      0.7559          0.6804E+06
   7966      1    100     24      0.7282          0.6804E+06
   7967      1    100     25      0.6935          0.6804E+06
   7968      1    100     26      0.6575          0.6804E+06
   7969      1    100     27      0.6270          0.6804E+06
   7970      1    100     28      0.5962          0.6804E+06
   7971      1    100     29      0.5696          0.6804E+06
   7972      1    100     30      0.5503          0.6804E+06
   7973      1    100     31      0.5315          0.6804E+06
   7974      1    100     32      0.5162          0.6804E+06
   7975      1    100     33      0.5008          0.6804E+06
   7976      1    100     34      0.4891          0.6804E+06
   7977      1    100     35      0.4816          0.6804E+06
   7978      1    100     36      0.4754          0.6804E+06
   7979      1    100     37      0.4719          0.6804E+06
   7980      1    100     38      0.4705          0.6804E+06
   7981      1    100     39      0.4703          0.6804E+06
   7982      1    100     40      0.4706          0.6804E+06
   7983      1    100     41      0.4703          0.6804E+06
   7984      1    100     42      0.4678          0.6804E+06
   7985      1    100     43      0.4639          0.6804E+06
   7986      1    100     44      0.4587          0.6804E+06
   7987      1    100     45      0.4532          0.6804E+06
   7988      1    100     46      0.4488          0.6804E+06
   7989      1    100     47      0.4447          0.6804E+06
   7990      1    100     48      0.4420          0.6804E+06
   7991      1    100     49      0.4390          0.6804E+06
   7992      1    100     50      0.4351          0.6804E+06
   7993      1    100     51      0.4303          0.6804E+06
   7994      1    100     52      0.4228          0.6804E+06
   7995      1    100     53      0.4154          0.6804E+06
   7996      1    100     54      0.4066          0.6804E+06
   7997      1    100     55      0.3979          0.6804E+06
   7998      1    100     56      0.3905          0.6804E+06
   7999      1    100     57      0.3826          0.6804E+06
   8000      1    100     58      0.3756          0.6804E+06
   8001      1    100     59      0.3701          0.6804E+06
   8002      1    100     60      0.3645          0.6804E+06
   8003      1    100     61      0.3604          0.6804E+06
   8004      1    100     62      0.3564          0.6804E+06
   8005      1    100     63      0.3531          0.6804E+06
   8006      1    100     64      0.3509          0.6804E+06
   8007      1    100     65      0.3489          0.6804E+06
   8008      1    100     66      0.3474          0.6804E+06
   8009      1    100     67      0.3465          0.6804E+06
   8010      1    100     68      0.3457          0.6804E+06
   8011      1    100     69      0.3452          0.6804E+06
   8012      1    100     70      0.3449          0.6804E+06
   8013      1    100     71      0.3446          0.6804E+06
   8014      1    100     72      0.3444          0.6804E+06
   8015      1    100     73      0.3440          0.6804E+06
   8016      1    100     74      0.3435          0.6804E+06
   8017      1    100     75      0.3428          0.6804E+06
   8018      1    100     76      0.3416          0.6804E+06
   8019      1    100     77      0.3401          0.6804E+06
   8020      1    100     78      0.3380          0.6804E+06
   8021      1    100     79      0.3356          0.6804E+06
   8022      1    100     80      0.3335          0.6804E+06
   8023      1    100     81      0.3310          0.6804E+06
   8024      1    100     82      0.3287          0.6804E+06
   8025      1    100     83      0.3268          0.6804E+06
   8026      1    100     84      0.3251          0.6804E+06
   8027      1    100     85      0.3239          0.6804E+06
   8028      1    100     86      0.3232          0.6804E+06
   8029      1    100     87      0.3233          0.6804E+06
   8030      1    100     88      0.3238          0.6804E+06
   8031      1    100     89      0.3251          0.6804E+06
   8032      1    100     90      0.3268          0.6804E+06
   8033      1    100     91      0.3286          0.6804E+06
   8034      1    100     92      0.3307          0.6804E+06
   8035      1    100     93      0.3325          0.6804E+06
   8036      1    100     94      0.3346          0.6804E+06
   8037      1    100     95      0.3365          0.6804E+06
   8038      1    100     96      0.3379          0.6804E+06
   8039      1    100     97      0.3392          0.6804E+06
   8040      1    100     98      0.3400          0.6804E+06
   8041      1    100     99      0.3406          0.6804E+06
   8042      1    100    100      0.3410          0.6804E+06

   8042 GHB CELLS



                           RECHARGE
 READING ON UNIT   19 WITH FORMAT: (100E15.6)          
 
 SOLVING FOR HEAD 

 NO OUTPUT CONTROL FOR STRESS PERIOD    5   TIME STEP    1
 SOLVING FOR ZETA FOR LAYER     1 ZONE     2
 SOLVING FOR ZETA FOR LAYER     2 ZONE     2
 SOLVING FOR ZETA FOR LAYER     3 ZONE     2
 
 SOLVING FOR HEAD 

 NO OUTPUT CONTROL FOR STRESS PERIOD    5   TIME STEP    2
 SOLVING FOR ZETA FOR LAYER     1 ZONE     2
 SOLVING FOR ZETA FOR LAYER     2 ZONE     2
 SOLVING FOR ZETA FOR LAYER     3 ZONE     2
 
 SOLVING FOR HEAD 

 NO OUTPUT CONTROL FOR STRESS PERIOD    5   TIME STEP    3
 SOLVING FOR ZETA FOR LAYER     1 ZONE     2
 SOLVING FOR ZETA FOR LAYER     2 ZONE     2
 SOLVING FOR ZETA FOR LAYER     3 ZONE     2
 
 SOLVING FOR HEAD 

 NO OUTPUT CONTROL FOR STRESS PERIOD    5   TIME STEP    4
 SOLVING FOR ZETA FOR LAYER     1 ZONE     2
 SOLVING FOR ZETA FOR LAYER     2 ZONE     2
 SOLVING FOR ZETA FOR LAYER     3 ZONE     2
 
 SOLVING FOR HEAD 

 NO OUTPUT CONTROL FOR STRESS PERIOD    5   TIME STEP    5
 SOLVING FOR ZETA FOR LAYER     1 ZONE     2
 SOLVING FOR ZETA FOR LAYER     2 ZONE     2
 SOLVING FOR ZETA FOR LAYER     3 ZONE     2
 
 SOLVING FOR HEAD 

 NO OUTPUT CONTROL FOR STRESS PERIOD    5   TIME STEP    6
 SOLVING FOR ZETA FOR LAYER     1 ZONE     2
 SOLVING FOR ZETA FOR LAYER     2 ZONE     2
 SOLVING FOR ZETA FOR LAYER     3 ZONE     2
 
 SOLVING FOR HEAD 

 NO OUTPUT CONTROL FOR STRESS PERIOD    5   TIME STEP    7
 SOLVING FOR ZETA FOR LAYER     1 ZONE     2
 SOLVING FOR ZETA FOR LAYER     2 ZONE     2
 SOLVING FOR ZETA FOR LAYER     3 ZONE     2
 
 SOLVING FOR HEAD 

 NO OUTPUT CONTROL FOR STRESS PERIOD    5   TIME STEP    8
 SOLVING FOR ZETA FOR LAYER     1 ZONE     2
 SOLVING FOR ZETA FOR LAYER     2 ZONE     2
 SOLVING FOR ZETA FOR LAYER     3 ZONE     2
 
 SOLVING FOR HEAD 

 NO OUTPUT CONTROL FOR STRESS PERIOD    5   TIME STEP    9
 SOLVING FOR ZETA FOR LAYER     1 ZONE     2
 SOLVING FOR ZETA FOR LAYER     2 ZONE     2
 SOLVING FOR ZETA FOR LAYER     3 ZONE     2
 
 SOLVING FOR HEAD 

 NO OUTPUT CONTROL FOR STRESS PERIOD    5   TIME STEP   10
 SOLVING FOR ZETA FOR LAYER     1 ZONE     2
 SOLVING FOR ZETA FOR LAYER     2 ZONE     2
 SOLVING FOR ZETA FOR LAYER     3 ZONE     2
 
 SOLVING FOR HEAD 

 NO OUTPUT CONTROL FOR STRESS PERIOD    5   TIME STEP   11
 SOLVING FOR ZETA FOR LAYER     1 ZONE     2
 SOLVING FOR ZETA FOR LAYER     2 ZONE     2
 SOLVING FOR ZETA FOR LAYER     3 ZONE     2
 
 SOLVING FOR HEAD 

 NO OUTPUT CONTROL FOR STRESS PERIOD    5   TIME STEP   12
 SOLVING FOR ZETA FOR LAYER     1 ZONE     2
 SOLVING FOR ZETA FOR LAYER     2 ZONE     2
 SOLVING FOR ZETA FOR LAYER     3 ZONE     2
 
 SOLVING FOR HEAD 

 NO OUTPUT CONTROL FOR STRESS PERIOD    5   TIME STEP   13
 SOLVING FOR ZETA FOR LAYER     1 ZONE     2
 SOLVING FOR ZETA FOR LAYER     2 ZONE     2
 SOLVING FOR ZETA FOR LAYER     3 ZONE     2
 
 SOLVING FOR HEAD 

 NO OUTPUT CONTROL FOR STRESS PERIOD    5   TIME STEP   14
 SOLVING FOR ZETA FOR LAYER     1 ZONE     2
 SOLVING FOR ZETA FOR LAYER     2 ZONE     2
 SOLVING FOR ZETA FOR LAYER     3 ZONE     2
 
 SOLVING FOR HEAD 

 NO OUTPUT CONTROL FOR STRESS PERIOD    5   TIME STEP   15
 SOLVING FOR ZETA FOR LAYER     1 ZONE     2
 SOLVING FOR ZETA FOR LAYER     2 ZONE     2
 SOLVING FOR ZETA FOR LAYER     3 ZONE     2
 
 SOLVING FOR HEAD 

 NO OUTPUT CONTROL FOR STRESS PERIOD    5   TIME STEP   16
 SOLVING FOR ZETA FOR LAYER     1 ZONE     2
 SOLVING FOR ZETA FOR LAYER     2 ZONE     2
 SOLVING FOR ZETA FOR LAYER     3 ZONE     2
 
 SOLVING FOR HEAD 

 NO OUTPUT CONTROL FOR STRESS PERIOD    5   TIME STEP   17
 SOLVING FOR ZETA FOR LAYER     1 ZONE     2
 SOLVING FOR ZETA FOR LAYER     2 ZONE     2
 SOLVING FOR ZETA FOR LAYER     3 ZONE     2
 
 SOLVING FOR HEAD 

 NO OUTPUT CONTROL FOR STRESS PERIOD    5   TIME STEP   18
 SOLVING FOR ZETA FOR LAYER     1 ZONE     2
 SOLVING FOR ZETA FOR LAYER     2 ZONE     2
 SOLVING FOR ZETA FOR LAYER     3 ZONE     2
 
 SOLVING FOR HEAD 

 NO OUTPUT CONTROL FOR STRESS PERIOD    5   TIME STEP   19
 SOLVING FOR ZETA FOR LAYER     1 ZONE     2
 SOLVING FOR ZETA FOR LAYER     2 ZONE     2
 SOLVING FOR ZETA FOR LAYER     3 ZONE     2
 
 SOLVING FOR HEAD 

 NO OUTPUT CONTROL FOR STRESS PERIOD    5   TIME STEP   20
 SOLVING FOR ZETA FOR LAYER     1 ZONE     2
 SOLVING FOR ZETA FOR LAYER     2 ZONE     2
 SOLVING FOR ZETA FOR LAYER     3 ZONE     2
 
 SOLVING FOR HEAD 

 NO OUTPUT CONTROL FOR STRESS PERIOD    5   TIME STEP   21
 SOLVING FOR ZETA FOR LAYER     1 ZONE     2
 SOLVING FOR ZETA FOR LAYER     2 ZONE     2
 SOLVING FOR ZETA FOR LAYER     3 ZONE     2
 
 SOLVING FOR HEAD 

 NO OUTPUT CONTROL FOR STRESS PERIOD    5   TIME STEP   22
 SOLVING FOR ZETA FOR LAYER     1 ZONE     2
 SOLVING FOR ZETA FOR LAYER     2 ZONE     2
 SOLVING FOR ZETA FOR LAYER     3 ZONE     2
 
 SOLVING FOR HEAD 

 NO OUTPUT CONTROL FOR STRESS PERIOD    5   TIME STEP   23
 SOLVING FOR ZETA FOR LAYER     1 ZONE     2
 SOLVING FOR ZETA FOR LAYER     2 ZONE     2
 SOLVING FOR ZETA FOR LAYER     3 ZONE     2
 
 SOLVING FOR HEAD 

 NO OUTPUT CONTROL FOR STRESS PERIOD    5   TIME STEP   24
 SOLVING FOR ZETA FOR LAYER     1 ZONE     2
 SOLVING FOR ZETA FOR LAYER     2 ZONE     2
 SOLVING FOR ZETA FOR LAYER     3 ZONE     2
 
 SOLVING FOR HEAD 

 NO OUTPUT CONTROL FOR STRESS PERIOD    5   TIME STEP   25
 SOLVING FOR ZETA FOR LAYER     1 ZONE     2
 SOLVING FOR ZETA FOR LAYER     2 ZONE     2
 SOLVING FOR ZETA FOR LAYER     3 ZONE     2
 
 SOLVING FOR HEAD 

 NO OUTPUT CONTROL FOR STRESS PERIOD    5   TIME STEP   26
 SOLVING FOR ZETA FOR LAYER     1 ZONE     2
 SOLVING FOR ZETA FOR LAYER     2 ZONE     2
 SOLVING FOR ZETA FOR LAYER     3 ZONE     2
 
 SOLVING FOR HEAD 

 NO OUTPUT CONTROL FOR STRESS PERIOD    5   TIME STEP   27
 SOLVING FOR ZETA FOR LAYER     1 ZONE     2
 SOLVING FOR ZETA FOR LAYER     2 ZONE     2
 SOLVING FOR ZETA FOR LAYER     3 ZONE     2
 
 SOLVING FOR HEAD 

 NO OUTPUT CONTROL FOR STRESS PERIOD    5   TIME STEP   28
 SOLVING FOR ZETA FOR LAYER     1 ZONE     2
 SOLVING FOR ZETA FOR LAYER     2 ZONE     2
 SOLVING FOR ZETA FOR LAYER     3 ZONE     2
 
 SOLVING FOR HEAD 

 NO OUTPUT CONTROL FOR STRESS PERIOD    5   TIME STEP   29
 SOLVING FOR ZETA FOR LAYER     1 ZONE     2
 SOLVING FOR ZETA FOR LAYER     2 ZONE     2
 SOLVING FOR ZETA FOR LAYER     3 ZONE     2
 
 SOLVING FOR HEAD 

 NO OUTPUT CONTROL FOR STRESS PERIOD    5   TIME STEP   30
 SOLVING FOR ZETA FOR LAYER     1 ZONE     2
 SOLVING FOR ZETA FOR LAYER     2 ZONE     2
 SOLVING FOR ZETA FOR LAYER     3 ZONE     2
 
 SOLVING FOR HEAD 

 NO OUTPUT CONTROL FOR STRESS PERIOD    5   TIME STEP   31
 SOLVING FOR ZETA FOR LAYER     1 ZONE     2
 SOLVING FOR ZETA FOR LAYER     2 ZONE     2
 SOLVING FOR ZETA FOR LAYER     3 ZONE     2
 
 SOLVING FOR HEAD 

 NO OUTPUT CONTROL FOR STRESS PERIOD    5   TIME STEP   32
 SOLVING FOR ZETA FOR LAYER     1 ZONE     2
 SOLVING FOR ZETA FOR LAYER     2 ZONE     2
 SOLVING FOR ZETA FOR LAYER     3 ZONE     2
 
 SOLVING FOR HEAD 

 NO OUTPUT CONTROL FOR STRESS PERIOD    5   TIME STEP   33
 SOLVING FOR ZETA FOR LAYER     1 ZONE     2
 SOLVING FOR ZETA FOR LAYER     2 ZONE     2
 SOLVING FOR ZETA FOR LAYER     3 ZONE     2
 
 SOLVING FOR HEAD 

 NO OUTPUT CONTROL FOR STRESS PERIOD    5   TIME STEP   34
 SOLVING FOR ZETA FOR LAYER     1 ZONE     2
 SOLVING FOR ZETA FOR LAYER     2 ZONE     2
 SOLVING FOR ZETA FOR LAYER     3 ZONE     2
 
 SOLVING FOR HEAD 

 NO OUTPUT CONTROL FOR STRESS PERIOD    5   TIME STEP   35
 SOLVING FOR ZETA FOR LAYER     1 ZONE     2
 SOLVING FOR ZETA FOR LAYER     2 ZONE     2
 SOLVING FOR ZETA FOR LAYER     3 ZONE     2
 
 SOLVING FOR HEAD 

 NO OUTPUT CONTROL FOR STRESS PERIOD    5   TIME STEP   36
 SOLVING FOR ZETA FOR LAYER     1 ZONE     2
 SOLVING FOR ZETA FOR LAYER     2 ZONE     2
 SOLVING FOR ZETA FOR LAYER     3 ZONE     2
 
 SOLVING FOR HEAD 

 NO OUTPUT CONTROL FOR STRESS PERIOD    5   TIME STEP   37
 SOLVING FOR ZETA FOR LAYER     1 ZONE     2
 SOLVING FOR ZETA FOR LAYER     2 ZONE     2
 SOLVING FOR ZETA FOR LAYER     3 ZONE     2
 
 SOLVING FOR HEAD 

 NO OUTPUT CONTROL FOR STRESS PERIOD    5   TIME STEP   38
 SOLVING FOR ZETA FOR LAYER     1 ZONE     2
 SOLVING FOR ZETA FOR LAYER     2 ZONE     2
 SOLVING FOR ZETA FOR LAYER     3 ZONE     2
 
 SOLVING FOR HEAD 

 NO OUTPUT CONTROL FOR STRESS PERIOD    5   TIME STEP   39
 SOLVING FOR ZETA FOR LAYER     1 ZONE     2
 SOLVING FOR ZETA FOR LAYER     2 ZONE     2
 SOLVING FOR ZETA FOR LAYER     3 ZONE     2
 
 SOLVING FOR HEAD 

 NO OUTPUT CONTROL FOR STRESS PERIOD    5   TIME STEP   40
 SOLVING FOR ZETA FOR LAYER     1 ZONE     2
 SOLVING FOR ZETA FOR LAYER     2 ZONE     2
 SOLVING FOR ZETA FOR LAYER     3 ZONE     2
 
 SOLVING FOR HEAD 

 NO OUTPUT CONTROL FOR STRESS PERIOD    5   TIME STEP   41
 SOLVING FOR ZETA FOR LAYER     1 ZONE     2
 SOLVING FOR ZETA FOR LAYER     2 ZONE     2
 SOLVING FOR ZETA FOR LAYER     3 ZONE     2
 
 SOLVING FOR HEAD 

 NO OUTPUT CONTROL FOR STRESS PERIOD    5   TIME STEP   42
 SOLVING FOR ZETA FOR LAYER     1 ZONE     2
 SOLVING FOR ZETA FOR LAYER     2 ZONE     2
 SOLVING FOR ZETA FOR LAYER     3 ZONE     2
 
 SOLVING FOR HEAD 

 NO OUTPUT CONTROL FOR STRESS PERIOD    5   TIME STEP   43
 SOLVING FOR ZETA FOR LAYER     1 ZONE     2
 SOLVING FOR ZETA FOR LAYER     2 ZONE     2
 SOLVING FOR ZETA FOR LAYER     3 ZONE     2
 
 SOLVING FOR HEAD 

 NO OUTPUT CONTROL FOR STRESS PERIOD    5   TIME STEP   44
 SOLVING FOR ZETA FOR LAYER     1 ZONE     2
 SOLVING FOR ZETA FOR LAYER     2 ZONE     2
 SOLVING FOR ZETA FOR LAYER     3 ZONE     2
 
 SOLVING FOR HEAD 

 NO OUTPUT CONTROL FOR STRESS PERIOD    5   TIME STEP   45
 SOLVING FOR ZETA FOR LAYER     1 ZONE     2
 SOLVING FOR ZETA FOR LAYER     2 ZONE     2
 SOLVING FOR ZETA FOR LAYER     3 ZONE     2
 
 SOLVING FOR HEAD 

 NO OUTPUT CONTROL FOR STRESS PERIOD    5   TIME STEP   46
 SOLVING FOR ZETA FOR LAYER     1 ZONE     2
 SOLVING FOR ZETA FOR LAYER     2 ZONE     2
 SOLVING FOR ZETA FOR LAYER     3 ZONE     2
 
 SOLVING FOR HEAD 

 NO OUTPUT CONTROL FOR STRESS PERIOD    5   TIME STEP   47
 SOLVING FOR ZETA FOR LAYER     1 ZONE     2
 SOLVING FOR ZETA FOR LAYER     2 ZONE     2
 SOLVING FOR ZETA FOR LAYER     3 ZONE     2
 
 SOLVING FOR HEAD 

 NO OUTPUT CONTROL FOR STRESS PERIOD    5   TIME STEP   48
 SOLVING FOR ZETA FOR LAYER     1 ZONE     2
 SOLVING FOR ZETA FOR LAYER     2 ZONE     2
 SOLVING FOR ZETA FOR LAYER     3 ZONE     2
 
 SOLVING FOR HEAD 

 NO OUTPUT CONTROL FOR STRESS PERIOD    5   TIME STEP   49
 SOLVING FOR ZETA FOR LAYER     1 ZONE     2
 SOLVING FOR ZETA FOR LAYER     2 ZONE     2
 SOLVING FOR ZETA FOR LAYER     3 ZONE     2
 
 SOLVING FOR HEAD 

 NO OUTPUT CONTROL FOR STRESS PERIOD    5   TIME STEP   50
 SOLVING FOR ZETA FOR LAYER     1 ZONE     2
 SOLVING FOR ZETA FOR LAYER     2 ZONE     2
 SOLVING FOR ZETA FOR LAYER     3 ZONE     2
 
 SOLVING FOR HEAD 

 NO OUTPUT CONTROL FOR STRESS PERIOD    5   TIME STEP   51
 SOLVING FOR ZETA FOR LAYER     1 ZONE     2
 SOLVING FOR ZETA FOR LAYER     2 ZONE     2
 SOLVING FOR ZETA FOR LAYER     3 ZONE     2
 
 SOLVING FOR HEAD 

 NO OUTPUT CONTROL FOR STRESS PERIOD    5   TIME STEP   52
 SOLVING FOR ZETA FOR LAYER     1 ZONE     2
 SOLVING FOR ZETA FOR LAYER     2 ZONE     2
 SOLVING FOR ZETA FOR LAYER     3 ZONE     2
 
 SOLVING FOR HEAD 

 NO OUTPUT CONTROL FOR STRESS PERIOD    5   TIME STEP   53
 SOLVING FOR ZETA FOR LAYER     1 ZONE     2
 SOLVING FOR ZETA FOR LAYER     2 ZONE     2
 SOLVING FOR ZETA FOR LAYER     3 ZONE     2
 
 SOLVING FOR HEAD 

 NO OUTPUT CONTROL FOR STRESS PERIOD    5   TIME STEP   54
 SOLVING FOR ZETA FOR LAYER     1 ZONE     2
 SOLVING FOR ZETA FOR LAYER     2 ZONE     2
 SOLVING FOR ZETA FOR LAYER     3 ZONE     2
 
 SOLVING FOR HEAD 

 NO OUTPUT CONTROL FOR STRESS PERIOD    5   TIME STEP   55
 SOLVING FOR ZETA FOR LAYER     1 ZONE     2
 SOLVING FOR ZETA FOR LAYER     2 ZONE     2
 SOLVING FOR ZETA FOR LAYER     3 ZONE     2
 
 SOLVING FOR HEAD 

 NO OUTPUT CONTROL FOR STRESS PERIOD    5   TIME STEP   56
 SOLVING FOR ZETA FOR LAYER     1 ZONE     2
 SOLVING FOR ZETA FOR LAYER     2 ZONE     2
 SOLVING FOR ZETA FOR LAYER     3 ZONE     2
 
 SOLVING FOR HEAD 

 NO OUTPUT CONTROL FOR STRESS PERIOD    5   TIME STEP   57
 SOLVING FOR ZETA FOR LAYER     1 ZONE     2
 SOLVING FOR ZETA FOR LAYER     2 ZONE     2
 SOLVING FOR ZETA FOR LAYER     3 ZONE     2
 
 SOLVING FOR HEAD 

 NO OUTPUT CONTROL FOR STRESS PERIOD    5   TIME STEP   58
 SOLVING FOR ZETA FOR LAYER     1 ZONE     2
 SOLVING FOR ZETA FOR LAYER     2 ZONE     2
 SOLVING FOR ZETA FOR LAYER     3 ZONE     2
 
 SOLVING FOR HEAD 

 NO OUTPUT CONTROL FOR STRESS PERIOD    5   TIME STEP   59
 SOLVING FOR ZETA FOR LAYER     1 ZONE     2
 SOLVING FOR ZETA FOR LAYER     2 ZONE     2
 SOLVING FOR ZETA FOR LAYER     3 ZONE     2
 
 SOLVING FOR HEAD 

 NO OUTPUT CONTROL FOR STRESS PERIOD    5   TIME STEP   60
 SOLVING FOR ZETA FOR LAYER     1 ZONE     2
 SOLVING FOR ZETA FOR LAYER     2 ZONE     2
 SOLVING FOR ZETA FOR LAYER     3 ZONE     2
 
 SOLVING FOR HEAD 

 NO OUTPUT CONTROL FOR STRESS PERIOD    5   TIME STEP   61
 SOLVING FOR ZETA FOR LAYER     1 ZONE     2
 SOLVING FOR ZETA FOR LAYER     2 ZONE     2
 SOLVING FOR ZETA FOR LAYER     3 ZONE     2
 
 SOLVING FOR HEAD 

 NO OUTPUT CONTROL FOR STRESS PERIOD    5   TIME STEP   62
 SOLVING FOR ZETA FOR LAYER     1 ZONE     2
 SOLVING FOR ZETA FOR LAYER     2 ZONE     2
 SOLVING FOR ZETA FOR LAYER     3 ZONE     2
 
 SOLVING FOR HEAD 

 NO OUTPUT CONTROL FOR STRESS PERIOD    5   TIME STEP   63
 SOLVING FOR ZETA FOR LAYER     1 ZONE     2
 SOLVING FOR ZETA FOR LAYER     2 ZONE     2
 SOLVING FOR ZETA FOR LAYER     3 ZONE     2
 
 SOLVING FOR HEAD 

 NO OUTPUT CONTROL FOR STRESS PERIOD    5   TIME STEP   64
 SOLVING FOR ZETA FOR LAYER     1 ZONE     2
 SOLVING FOR ZETA FOR LAYER     2 ZONE     2
 SOLVING FOR ZETA FOR LAYER     3 ZONE     2
 
 SOLVING FOR HEAD 

 NO OUTPUT CONTROL FOR STRESS PERIOD    5   TIME STEP   65
 SOLVING FOR ZETA FOR LAYER     1 ZONE     2
 SOLVING FOR ZETA FOR LAYER     2 ZONE     2
 SOLVING FOR ZETA FOR LAYER     3 ZONE     2
 
 SOLVING FOR HEAD 

 NO OUTPUT CONTROL FOR STRESS PERIOD    5   TIME STEP   66
 SOLVING FOR ZETA FOR LAYER     1 ZONE     2
 SOLVING FOR ZETA FOR LAYER     2 ZONE     2
 SOLVING FOR ZETA FOR LAYER     3 ZONE     2
 
 SOLVING FOR HEAD 

 NO OUTPUT CONTROL FOR STRESS PERIOD    5   TIME STEP   67
 SOLVING FOR ZETA FOR LAYER     1 ZONE     2
 SOLVING FOR ZETA FOR LAYER     2 ZONE     2
 SOLVING FOR ZETA FOR LAYER     3 ZONE     2
 
 SOLVING FOR HEAD 

 NO OUTPUT CONTROL FOR STRESS PERIOD    5   TIME STEP   68
 SOLVING FOR ZETA FOR LAYER     1 ZONE     2
 SOLVING FOR ZETA FOR LAYER     2 ZONE     2
 SOLVING FOR ZETA FOR LAYER     3 ZONE     2
 
 SOLVING FOR HEAD 

 NO OUTPUT CONTROL FOR STRESS PERIOD    5   TIME STEP   69
 SOLVING FOR ZETA FOR LAYER     1 ZONE     2
 SOLVING FOR ZETA FOR LAYER     2 ZONE     2
 SOLVING FOR ZETA FOR LAYER     3 ZONE     2
 
 SOLVING FOR HEAD 

 NO OUTPUT CONTROL FOR STRESS PERIOD    5   TIME STEP   70
 SOLVING FOR ZETA FOR LAYER     1 ZONE     2
 SOLVING FOR ZETA FOR LAYER     2 ZONE     2
 SOLVING FOR ZETA FOR LAYER     3 ZONE     2
 
 SOLVING FOR HEAD 

 NO OUTPUT CONTROL FOR STRESS PERIOD    5   TIME STEP   71
 SOLVING FOR ZETA FOR LAYER     1 ZONE     2
 SOLVING FOR ZETA FOR LAYER     2 ZONE     2
 SOLVING FOR ZETA FOR LAYER     3 ZONE     2
 
 SOLVING FOR HEAD 

 NO OUTPUT CONTROL FOR STRESS PERIOD    5   TIME STEP   72
 SOLVING FOR ZETA FOR LAYER     1 ZONE     2
 SOLVING FOR ZETA FOR LAYER     2 ZONE     2
 SOLVING FOR ZETA FOR LAYER     3 ZONE     2
 
 SOLVING FOR HEAD 

 NO OUTPUT CONTROL FOR STRESS PERIOD    5   TIME STEP   73
 SOLVING FOR ZETA FOR LAYER     1 ZONE     2
 SOLVING FOR ZETA FOR LAYER     2 ZONE     2
 SOLVING FOR ZETA FOR LAYER     3 ZONE     2
 
 SOLVING FOR HEAD 

 NO OUTPUT CONTROL FOR STRESS PERIOD    5   TIME STEP   74
 SOLVING FOR ZETA FOR LAYER     1 ZONE     2
 SOLVING FOR ZETA FOR LAYER     2 ZONE     2
 SOLVING FOR ZETA FOR LAYER     3 ZONE     2
 
 SOLVING FOR HEAD 

 NO OUTPUT CONTROL FOR STRESS PERIOD    5   TIME STEP   75
 SOLVING FOR ZETA FOR LAYER     1 ZONE     2
 SOLVING FOR ZETA FOR LAYER     2 ZONE     2
 SOLVING FOR ZETA FOR LAYER     3 ZONE     2
 
 SOLVING FOR HEAD 

 NO OUTPUT CONTROL FOR STRESS PERIOD    5   TIME STEP   76
 SOLVING FOR ZETA FOR LAYER     1 ZONE     2
 SOLVING FOR ZETA FOR LAYER     2 ZONE     2
 SOLVING FOR ZETA FOR LAYER     3 ZONE     2
 
 SOLVING FOR HEAD 

 NO OUTPUT CONTROL FOR STRESS PERIOD    5   TIME STEP   77
 SOLVING FOR ZETA FOR LAYER     1 ZONE     2
 SOLVING FOR ZETA FOR LAYER     2 ZONE     2
 SOLVING FOR ZETA FOR LAYER     3 ZONE     2
 
 SOLVING FOR HEAD 

 NO OUTPUT CONTROL FOR STRESS PERIOD    5   TIME STEP   78
 SOLVING FOR ZETA FOR LAYER     1 ZONE     2
 SOLVING FOR ZETA FOR LAYER     2 ZONE     2
 SOLVING FOR ZETA FOR LAYER     3 ZONE     2
 
 SOLVING FOR HEAD 

 NO OUTPUT CONTROL FOR STRESS PERIOD    5   TIME STEP   79
 SOLVING FOR ZETA FOR LAYER     1 ZONE     2
 SOLVING FOR ZETA FOR LAYER     2 ZONE     2
 SOLVING FOR ZETA FOR LAYER     3 ZONE     2
 
 SOLVING FOR HEAD 

 NO OUTPUT CONTROL FOR STRESS PERIOD    5   TIME STEP   80
 SOLVING FOR ZETA FOR LAYER     1 ZONE     2
 SOLVING FOR ZETA FOR LAYER     2 ZONE     2
 SOLVING FOR ZETA FOR LAYER     3 ZONE     2
 
 SOLVING FOR HEAD 

 NO OUTPUT CONTROL FOR STRESS PERIOD    5   TIME STEP   81
 SOLVING FOR ZETA FOR LAYER     1 ZONE     2
 SOLVING FOR ZETA FOR LAYER     2 ZONE     2
 SOLVING FOR ZETA FOR LAYER     3 ZONE     2
 
 SOLVING FOR HEAD 

 NO OUTPUT CONTROL FOR STRESS PERIOD    5   TIME STEP   82
 SOLVING FOR ZETA FOR LAYER     1 ZONE     2
 SOLVING FOR ZETA FOR LAYER     2 ZONE     2
 SOLVING FOR ZETA FOR LAYER     3 ZONE     2
 
 SOLVING FOR HEAD 

 NO OUTPUT CONTROL FOR STRESS PERIOD    5   TIME STEP   83
 SOLVING FOR ZETA FOR LAYER     1 ZONE     2
 SOLVING FOR ZETA FOR LAYER     2 ZONE     2
 SOLVING FOR ZETA FOR LAYER     3 ZONE     2
 
 SOLVING FOR HEAD 

 NO OUTPUT CONTROL FOR STRESS PERIOD    5   TIME STEP   84
 SOLVING FOR ZETA FOR LAYER     1 ZONE     2
 SOLVING FOR ZETA FOR LAYER     2 ZONE     2
 SOLVING FOR ZETA FOR LAYER     3 ZONE     2
 
 SOLVING FOR HEAD 

 NO OUTPUT CONTROL FOR STRESS PERIOD    5   TIME STEP   85
 SOLVING FOR ZETA FOR LAYER     1 ZONE     2
 SOLVING FOR ZETA FOR LAYER     2 ZONE     2
 SOLVING FOR ZETA FOR LAYER     3 ZONE     2
 
 SOLVING FOR HEAD 

 NO OUTPUT CONTROL FOR STRESS PERIOD    5   TIME STEP   86
 SOLVING FOR ZETA FOR LAYER     1 ZONE     2
 SOLVING FOR ZETA FOR LAYER     2 ZONE     2
 SOLVING FOR ZETA FOR LAYER     3 ZONE     2
 
 SOLVING FOR HEAD 

 NO OUTPUT CONTROL FOR STRESS PERIOD    5   TIME STEP   87
 SOLVING FOR ZETA FOR LAYER     1 ZONE     2
 SOLVING FOR ZETA FOR LAYER     2 ZONE     2
 SOLVING FOR ZETA FOR LAYER     3 ZONE     2
 
 SOLVING FOR HEAD 

 NO OUTPUT CONTROL FOR STRESS PERIOD    5   TIME STEP   88
 SOLVING FOR ZETA FOR LAYER     1 ZONE     2
 SOLVING FOR ZETA FOR LAYER     2 ZONE     2
 SOLVING FOR ZETA FOR LAYER     3 ZONE     2
 
 SOLVING FOR HEAD 

 NO OUTPUT CONTROL FOR STRESS PERIOD    5   TIME STEP   89
 SOLVING FOR ZETA FOR LAYER     1 ZONE     2
 SOLVING FOR ZETA FOR LAYER     2 ZONE     2
 SOLVING FOR ZETA FOR LAYER     3 ZONE     2
 
 SOLVING FOR HEAD 

 NO OUTPUT CONTROL FOR STRESS PERIOD    5   TIME STEP   90
 SOLVING FOR ZETA FOR LAYER     1 ZONE     2
 SOLVING FOR ZETA FOR LAYER     2 ZONE     2
 SOLVING FOR ZETA FOR LAYER     3 ZONE     2
 
 SOLVING FOR HEAD 

 NO OUTPUT CONTROL FOR STRESS PERIOD    5   TIME STEP   91
 SOLVING FOR ZETA FOR LAYER     1 ZONE     2
 SOLVING FOR ZETA FOR LAYER     2 ZONE     2
 SOLVING FOR ZETA FOR LAYER     3 ZONE     2
 
 SOLVING FOR HEAD 

 NO OUTPUT CONTROL FOR STRESS PERIOD    5   TIME STEP   92
 SOLVING FOR ZETA FOR LAYER     1 ZONE     2
 SOLVING FOR ZETA FOR LAYER     2 ZONE     2
 SOLVING FOR ZETA FOR LAYER     3 ZONE     2
 
 SOLVING FOR HEAD 

 NO OUTPUT CONTROL FOR STRESS PERIOD    5   TIME STEP   93
 SOLVING FOR ZETA FOR LAYER     1 ZONE     2
 SOLVING FOR ZETA FOR LAYER     2 ZONE     2
 SOLVING FOR ZETA FOR LAYER     3 ZONE     2
 
 SOLVING FOR HEAD 

 NO OUTPUT CONTROL FOR STRESS PERIOD    5   TIME STEP   94
 SOLVING FOR ZETA FOR LAYER     1 ZONE     2
 SOLVING FOR ZETA FOR LAYER     2 ZONE     2
 SOLVING FOR ZETA FOR LAYER     3 ZONE     2
 
 SOLVING FOR HEAD 

 NO OUTPUT CONTROL FOR STRESS PERIOD    5   TIME STEP   95
 SOLVING FOR ZETA FOR LAYER     1 ZONE     2
 SOLVING FOR ZETA FOR LAYER     2 ZONE     2
 SOLVING FOR ZETA FOR LAYER     3 ZONE     2
 
 SOLVING FOR HEAD 

 NO OUTPUT CONTROL FOR STRESS PERIOD    5   TIME STEP   96
 SOLVING FOR ZETA FOR LAYER     1 ZONE     2
 SOLVING FOR ZETA FOR LAYER     2 ZONE     2
 SOLVING FOR ZETA FOR LAYER     3 ZONE     2
 
 SOLVING FOR HEAD 

 NO OUTPUT CONTROL FOR STRESS PERIOD    5   TIME STEP   97
 SOLVING FOR ZETA FOR LAYER     1 ZONE     2
 SOLVING FOR ZETA FOR LAYER     2 ZONE     2
 SOLVING FOR ZETA FOR LAYER     3 ZONE     2
 
 SOLVING FOR HEAD 

 NO OUTPUT CONTROL FOR STRESS PERIOD    5   TIME STEP   98
 SOLVING FOR ZETA FOR LAYER     1 ZONE     2
 SOLVING FOR ZETA FOR LAYER     2 ZONE     2
 SOLVING FOR ZETA FOR LAYER     3 ZONE     2
 
 SOLVING FOR HEAD 

 NO OUTPUT CONTROL FOR STRESS PERIOD    5   TIME STEP   99
 SOLVING FOR ZETA FOR LAYER     1 ZONE     2
 SOLVING FOR ZETA FOR LAYER     2 ZONE     2
 SOLVING FOR ZETA FOR LAYER     3 ZONE     2
 
 SOLVING FOR HEAD 

 NO OUTPUT CONTROL FOR STRESS PERIOD    5   TIME STEP  100
 SOLVING FOR ZETA FOR LAYER     1 ZONE     2
 SOLVING FOR ZETA FOR LAYER     2 ZONE     2
 SOLVING FOR ZETA FOR LAYER     3 ZONE     2
 
 SOLVING FOR HEAD 

 NO OUTPUT CONTROL FOR STRESS PERIOD    5   TIME STEP  101
 SOLVING FOR ZETA FOR LAYER     1 ZONE     2
 SOLVING FOR ZETA FOR LAYER     2 ZONE     2
 SOLVING FOR ZETA FOR LAYER     3 ZONE     2
 
 SOLVING FOR HEAD 

 NO OUTPUT CONTROL FOR STRESS PERIOD    5   TIME STEP  102
 SOLVING FOR ZETA FOR LAYER     1 ZONE     2
 SOLVING FOR ZETA FOR LAYER     2 ZONE     2
 SOLVING FOR ZETA FOR LAYER     3 ZONE     2
 
 SOLVING FOR HEAD 

 NO OUTPUT CONTROL FOR STRESS PERIOD    5   TIME STEP  103
 SOLVING FOR ZETA FOR LAYER     1 ZONE     2
 SOLVING FOR ZETA FOR LAYER     2 ZONE     2
 SOLVING FOR ZETA FOR LAYER     3 ZONE     2
 
 SOLVING FOR HEAD 

 NO OUTPUT CONTROL FOR STRESS PERIOD    5   TIME STEP  104
 SOLVING FOR ZETA FOR LAYER     1 ZONE     2
 SOLVING FOR ZETA FOR LAYER     2 ZONE     2
 SOLVING FOR ZETA FOR LAYER     3 ZONE     2
 
 SOLVING FOR HEAD 

 NO OUTPUT CONTROL FOR STRESS PERIOD    5   TIME STEP  105
 SOLVING FOR ZETA FOR LAYER     1 ZONE     2
 SOLVING FOR ZETA FOR LAYER     2 ZONE     2
 SOLVING FOR ZETA FOR LAYER     3 ZONE     2
 
 SOLVING FOR HEAD 

 NO OUTPUT CONTROL FOR STRESS PERIOD    5   TIME STEP  106
 SOLVING FOR ZETA FOR LAYER     1 ZONE     2
 SOLVING FOR ZETA FOR LAYER     2 ZONE     2
 SOLVING FOR ZETA FOR LAYER     3 ZONE     2
 
 SOLVING FOR HEAD 

 NO OUTPUT CONTROL FOR STRESS PERIOD    5   TIME STEP  107
 SOLVING FOR ZETA FOR LAYER     1 ZONE     2
 SOLVING FOR ZETA FOR LAYER     2 ZONE     2
 SOLVING FOR ZETA FOR LAYER     3 ZONE     2
 
 SOLVING FOR HEAD 

 NO OUTPUT CONTROL FOR STRESS PERIOD    5   TIME STEP  108
 SOLVING FOR ZETA FOR LAYER     1 ZONE     2
 SOLVING FOR ZETA FOR LAYER     2 ZONE     2
 SOLVING FOR ZETA FOR LAYER     3 ZONE     2
 
 SOLVING FOR HEAD 

 NO OUTPUT CONTROL FOR STRESS PERIOD    5   TIME STEP  109
 SOLVING FOR ZETA FOR LAYER     1 ZONE     2
 SOLVING FOR ZETA FOR LAYER     2 ZONE     2
 SOLVING FOR ZETA FOR LAYER     3 ZONE     2
 
 SOLVING FOR HEAD 

 NO OUTPUT CONTROL FOR STRESS PERIOD    5   TIME STEP  110
 SOLVING FOR ZETA FOR LAYER     1 ZONE     2
 SOLVING FOR ZETA FOR LAYER     2 ZONE     2
 SOLVING FOR ZETA FOR LAYER     3 ZONE     2
 
 SOLVING FOR HEAD 

 NO OUTPUT CONTROL FOR STRESS PERIOD    5   TIME STEP  111
 SOLVING FOR ZETA FOR LAYER     1 ZONE     2
 SOLVING FOR ZETA FOR LAYER     2 ZONE     2
 SOLVING FOR ZETA FOR LAYER     3 ZONE     2
 
 SOLVING FOR HEAD 

 NO OUTPUT CONTROL FOR STRESS PERIOD    5   TIME STEP  112
 SOLVING FOR ZETA FOR LAYER     1 ZONE     2
 SOLVING FOR ZETA FOR LAYER     2 ZONE     2
 SOLVING FOR ZETA FOR LAYER     3 ZONE     2
 
 SOLVING FOR HEAD 

 NO OUTPUT CONTROL FOR STRESS PERIOD    5   TIME STEP  113
 SOLVING FOR ZETA FOR LAYER     1 ZONE     2
 SOLVING FOR ZETA FOR LAYER     2 ZONE     2
 SOLVING FOR ZETA FOR LAYER     3 ZONE     2
 
 SOLVING FOR HEAD 

 NO OUTPUT CONTROL FOR STRESS PERIOD    5   TIME STEP  114
 SOLVING FOR ZETA FOR LAYER     1 ZONE     2
 SOLVING FOR ZETA FOR LAYER     2 ZONE     2
 SOLVING FOR ZETA FOR LAYER     3 ZONE     2
 
 SOLVING FOR HEAD 

 NO OUTPUT CONTROL FOR STRESS PERIOD    5   TIME STEP  115
 SOLVING FOR ZETA FOR LAYER     1 ZONE     2
 SOLVING FOR ZETA FOR LAYER     2 ZONE     2
 SOLVING FOR ZETA FOR LAYER     3 ZONE     2
 
 SOLVING FOR HEAD 

 NO OUTPUT CONTROL FOR STRESS PERIOD    5   TIME STEP  116
 SOLVING FOR ZETA FOR LAYER     1 ZONE     2
 SOLVING FOR ZETA FOR LAYER     2 ZONE     2
 SOLVING FOR ZETA FOR LAYER     3 ZONE     2
 
 SOLVING FOR HEAD 

 NO OUTPUT CONTROL FOR STRESS PERIOD    5   TIME STEP  117
 SOLVING FOR ZETA FOR LAYER     1 ZONE     2
 SOLVING FOR ZETA FOR LAYER     2 ZONE     2
 SOLVING FOR ZETA FOR LAYER     3 ZONE     2
 
 SOLVING FOR HEAD 

 NO OUTPUT CONTROL FOR STRESS PERIOD    5   TIME STEP  118
 SOLVING FOR ZETA FOR LAYER     1 ZONE     2
 SOLVING FOR ZETA FOR LAYER     2 ZONE     2
 SOLVING FOR ZETA FOR LAYER     3 ZONE     2
 
 SOLVING FOR HEAD 

 NO OUTPUT CONTROL FOR STRESS PERIOD    5   TIME STEP  119
 SOLVING FOR ZETA FOR LAYER     1 ZONE     2
 SOLVING FOR ZETA FOR LAYER     2 ZONE     2
 SOLVING FOR ZETA FOR LAYER     3 ZONE     2
 
 SOLVING FOR HEAD 

 NO OUTPUT CONTROL FOR STRESS PERIOD    5   TIME STEP  120
 SOLVING FOR ZETA FOR LAYER     1 ZONE     2
 SOLVING FOR ZETA FOR LAYER     2 ZONE     2
 SOLVING FOR ZETA FOR LAYER     3 ZONE     2
 
 SOLVING FOR HEAD 

 NO OUTPUT CONTROL FOR STRESS PERIOD    5   TIME STEP  121
 SOLVING FOR ZETA FOR LAYER     1 ZONE     2
 SOLVING FOR ZETA FOR LAYER     2 ZONE     2
 SOLVING FOR ZETA FOR LAYER     3 ZONE     2
 
 SOLVING FOR HEAD 

 NO OUTPUT CONTROL FOR STRESS PERIOD    5   TIME STEP  122
 SOLVING FOR ZETA FOR LAYER     1 ZONE     2
 SOLVING FOR ZETA FOR LAYER     2 ZONE     2
 SOLVING FOR ZETA FOR LAYER     3 ZONE     2
 
 SOLVING FOR HEAD 

 NO OUTPUT CONTROL FOR STRESS PERIOD    5   TIME STEP  123
 SOLVING FOR ZETA FOR LAYER     1 ZONE     2
 SOLVING FOR ZETA FOR LAYER     2 ZONE     2
 SOLVING FOR ZETA FOR LAYER     3 ZONE     2
 
 SOLVING FOR HEAD 

 NO OUTPUT CONTROL FOR STRESS PERIOD    5   TIME STEP  124
 SOLVING FOR ZETA FOR LAYER     1 ZONE     2
 SOLVING FOR ZETA FOR LAYER     2 ZONE     2
 SOLVING FOR ZETA FOR LAYER     3 ZONE     2
 
 SOLVING FOR HEAD 

 NO OUTPUT CONTROL FOR STRESS PERIOD    5   TIME STEP  125
 SOLVING FOR ZETA FOR LAYER     1 ZONE     2
 SOLVING FOR ZETA FOR LAYER     2 ZONE     2
 SOLVING FOR ZETA FOR LAYER     3 ZONE     2
 
 SOLVING FOR HEAD 

 NO OUTPUT CONTROL FOR STRESS PERIOD    5   TIME STEP  126
 SOLVING FOR ZETA FOR LAYER     1 ZONE     2
 SOLVING FOR ZETA FOR LAYER     2 ZONE     2
 SOLVING FOR ZETA FOR LAYER     3 ZONE     2
 
 SOLVING FOR HEAD 

 NO OUTPUT CONTROL FOR STRESS PERIOD    5   TIME STEP  127
 SOLVING FOR ZETA FOR LAYER     1 ZONE     2
 SOLVING FOR ZETA FOR LAYER     2 ZONE     2
 SOLVING FOR ZETA FOR LAYER     3 ZONE     2
 
 SOLVING FOR HEAD 

 NO OUTPUT CONTROL FOR STRESS PERIOD    5   TIME STEP  128
 SOLVING FOR ZETA FOR LAYER     1 ZONE     2
 SOLVING FOR ZETA FOR LAYER     2 ZONE     2
 SOLVING FOR ZETA FOR LAYER     3 ZONE     2
 
 SOLVING FOR HEAD 

 NO OUTPUT CONTROL FOR STRESS PERIOD    5   TIME STEP  129
 SOLVING FOR ZETA FOR LAYER     1 ZONE     2
 SOLVING FOR ZETA FOR LAYER     2 ZONE     2
 SOLVING FOR ZETA FOR LAYER     3 ZONE     2
 
 SOLVING FOR HEAD 

 NO OUTPUT CONTROL FOR STRESS PERIOD    5   TIME STEP  130
 SOLVING FOR ZETA FOR LAYER     1 ZONE     2
 SOLVING FOR ZETA FOR LAYER     2 ZONE     2
 SOLVING FOR ZETA FOR LAYER     3 ZONE     2
 
 SOLVING FOR HEAD 

 NO OUTPUT CONTROL FOR STRESS PERIOD    5   TIME STEP  131
 SOLVING FOR ZETA FOR LAYER     1 ZONE     2
 SOLVING FOR ZETA FOR LAYER     2 ZONE     2
 SOLVING FOR ZETA FOR LAYER     3 ZONE     2
 
 SOLVING FOR HEAD 

 NO OUTPUT CONTROL FOR STRESS PERIOD    5   TIME STEP  132
 SOLVING FOR ZETA FOR LAYER     1 ZONE     2
 SOLVING FOR ZETA FOR LAYER     2 ZONE     2
 SOLVING FOR ZETA FOR LAYER     3 ZONE     2
 
 SOLVING FOR HEAD 

 NO OUTPUT CONTROL FOR STRESS PERIOD    5   TIME STEP  133
 SOLVING FOR ZETA FOR LAYER     1 ZONE     2
 SOLVING FOR ZETA FOR LAYER     2 ZONE     2
 SOLVING FOR ZETA FOR LAYER     3 ZONE     2
 
 SOLVING FOR HEAD 

 NO OUTPUT CONTROL FOR STRESS PERIOD    5   TIME STEP  134
 SOLVING FOR ZETA FOR LAYER     1 ZONE     2
 SOLVING FOR ZETA FOR LAYER     2 ZONE     2
 SOLVING FOR ZETA FOR LAYER     3 ZONE     2
 
 SOLVING FOR HEAD 

 NO OUTPUT CONTROL FOR STRESS PERIOD    5   TIME STEP  135
 SOLVING FOR ZETA FOR LAYER     1 ZONE     2
 SOLVING FOR ZETA FOR LAYER     2 ZONE     2
 SOLVING FOR ZETA FOR LAYER     3 ZONE     2
 
 SOLVING FOR HEAD 

 NO OUTPUT CONTROL FOR STRESS PERIOD    5   TIME STEP  136
 SOLVING FOR ZETA FOR LAYER     1 ZONE     2
 SOLVING FOR ZETA FOR LAYER     2 ZONE     2
 SOLVING FOR ZETA FOR LAYER     3 ZONE     2
 
 SOLVING FOR HEAD 

 NO OUTPUT CONTROL FOR STRESS PERIOD    5   TIME STEP  137
 SOLVING FOR ZETA FOR LAYER     1 ZONE     2
 SOLVING FOR ZETA FOR LAYER     2 ZONE     2
 SOLVING FOR ZETA FOR LAYER     3 ZONE     2
 
 SOLVING FOR HEAD 

 NO OUTPUT CONTROL FOR STRESS PERIOD    5   TIME STEP  138
 SOLVING FOR ZETA FOR LAYER     1 ZONE     2
 SOLVING FOR ZETA FOR LAYER     2 ZONE     2
 SOLVING FOR ZETA FOR LAYER     3 ZONE     2
 
 SOLVING FOR HEAD 

 NO OUTPUT CONTROL FOR STRESS PERIOD    5   TIME STEP  139
 SOLVING FOR ZETA FOR LAYER     1 ZONE     2
 SOLVING FOR ZETA FOR LAYER     2 ZONE     2
 SOLVING FOR ZETA FOR LAYER     3 ZONE     2
 
 SOLVING FOR HEAD 

 NO OUTPUT CONTROL FOR STRESS PERIOD    5   TIME STEP  140
 SOLVING FOR ZETA FOR LAYER     1 ZONE     2
 SOLVING FOR ZETA FOR LAYER     2 ZONE     2
 SOLVING FOR ZETA FOR LAYER     3 ZONE     2
 
 SOLVING FOR HEAD 

 NO OUTPUT CONTROL FOR STRESS PERIOD    5   TIME STEP  141
 SOLVING FOR ZETA FOR LAYER     1 ZONE     2
 SOLVING FOR ZETA FOR LAYER     2 ZONE     2
 SOLVING FOR ZETA FOR LAYER     3 ZONE     2
 
 SOLVING FOR HEAD 

 NO OUTPUT CONTROL FOR STRESS PERIOD    5   TIME STEP  142
 SOLVING FOR ZETA FOR LAYER     1 ZONE     2
 SOLVING FOR ZETA FOR LAYER     2 ZONE     2
 SOLVING FOR ZETA FOR LAYER     3 ZONE     2
 
 SOLVING FOR HEAD 

 NO OUTPUT CONTROL FOR STRESS PERIOD    5   TIME STEP  143
 SOLVING FOR ZETA FOR LAYER     1 ZONE     2
 SOLVING FOR ZETA FOR LAYER     2 ZONE     2
 SOLVING FOR ZETA FOR LAYER     3 ZONE     2
 
 SOLVING FOR HEAD 

 NO OUTPUT CONTROL FOR STRESS PERIOD    5   TIME STEP  144
 SOLVING FOR ZETA FOR LAYER     1 ZONE     2
 SOLVING FOR ZETA FOR LAYER     2 ZONE     2
 SOLVING FOR ZETA FOR LAYER     3 ZONE     2
 
 SOLVING FOR HEAD 

 NO OUTPUT CONTROL FOR STRESS PERIOD    5   TIME STEP  145
 SOLVING FOR ZETA FOR LAYER     1 ZONE     2
 SOLVING FOR ZETA FOR LAYER     2 ZONE     2
 SOLVING FOR ZETA FOR LAYER     3 ZONE     2
 
 SOLVING FOR HEAD 

 NO OUTPUT CONTROL FOR STRESS PERIOD    5   TIME STEP  146
 SOLVING FOR ZETA FOR LAYER     1 ZONE     2
 SOLVING FOR ZETA FOR LAYER     2 ZONE     2
 SOLVING FOR ZETA FOR LAYER     3 ZONE     2
 
 SOLVING FOR HEAD 

 NO OUTPUT CONTROL FOR STRESS PERIOD    5   TIME STEP  147
 SOLVING FOR ZETA FOR LAYER     1 ZONE     2
 SOLVING FOR ZETA FOR LAYER     2 ZONE     2
 SOLVING FOR ZETA FOR LAYER     3 ZONE     2
 
 SOLVING FOR HEAD 

 NO OUTPUT CONTROL FOR STRESS PERIOD    5   TIME STEP  148
 SOLVING FOR ZETA FOR LAYER     1 ZONE     2
 SOLVING FOR ZETA FOR LAYER     2 ZONE     2
 SOLVING FOR ZETA FOR LAYER     3 ZONE     2
 
 SOLVING FOR HEAD 

 NO OUTPUT CONTROL FOR STRESS PERIOD    5   TIME STEP  149
 SOLVING FOR ZETA FOR LAYER     1 ZONE     2
 SOLVING FOR ZETA FOR LAYER     2 ZONE     2
 SOLVING FOR ZETA FOR LAYER     3 ZONE     2
 
 SOLVING FOR HEAD 

 NO OUTPUT CONTROL FOR STRESS PERIOD    5   TIME STEP  150
 SOLVING FOR ZETA FOR LAYER     1 ZONE     2
 SOLVING FOR ZETA FOR LAYER     2 ZONE     2
 SOLVING FOR ZETA FOR LAYER     3 ZONE     2
 
 SOLVING FOR HEAD 

 NO OUTPUT CONTROL FOR STRESS PERIOD    5   TIME STEP  151
 SOLVING FOR ZETA FOR LAYER     1 ZONE     2
 SOLVING FOR ZETA FOR LAYER     2 ZONE     2
 SOLVING FOR ZETA FOR LAYER     3 ZONE     2
 
 SOLVING FOR HEAD 

 NO OUTPUT CONTROL FOR STRESS PERIOD    5   TIME STEP  152
 SOLVING FOR ZETA FOR LAYER     1 ZONE     2
 SOLVING FOR ZETA FOR LAYER     2 ZONE     2
 SOLVING FOR ZETA FOR LAYER     3 ZONE     2
 
 SOLVING FOR HEAD 

 NO OUTPUT CONTROL FOR STRESS PERIOD    5   TIME STEP  153
 SOLVING FOR ZETA FOR LAYER     1 ZONE     2
 SOLVING FOR ZETA FOR LAYER     2 ZONE     2
 SOLVING FOR ZETA FOR LAYER     3 ZONE     2
 
 SOLVING FOR HEAD 

 NO OUTPUT CONTROL FOR STRESS PERIOD    5   TIME STEP  154
 SOLVING FOR ZETA FOR LAYER     1 ZONE     2
 SOLVING FOR ZETA FOR LAYER     2 ZONE     2
 SOLVING FOR ZETA FOR LAYER     3 ZONE     2
 
 SOLVING FOR HEAD 

 NO OUTPUT CONTROL FOR STRESS PERIOD    5   TIME STEP  155
 SOLVING FOR ZETA FOR LAYER     1 ZONE     2
 SOLVING FOR ZETA FOR LAYER     2 ZONE     2
 SOLVING FOR ZETA FOR LAYER     3 ZONE     2
 
 SOLVING FOR HEAD 

 NO OUTPUT CONTROL FOR STRESS PERIOD    5   TIME STEP  156
 SOLVING FOR ZETA FOR LAYER     1 ZONE     2
 SOLVING FOR ZETA FOR LAYER     2 ZONE     2
 SOLVING FOR ZETA FOR LAYER     3 ZONE     2
 
 SOLVING FOR HEAD 

 NO OUTPUT CONTROL FOR STRESS PERIOD    5   TIME STEP  157
 SOLVING FOR ZETA FOR LAYER     1 ZONE     2
 SOLVING FOR ZETA FOR LAYER     2 ZONE     2
 SOLVING FOR ZETA FOR LAYER     3 ZONE     2
 
 SOLVING FOR HEAD 

 NO OUTPUT CONTROL FOR STRESS PERIOD    5   TIME STEP  158
 SOLVING FOR ZETA FOR LAYER     1 ZONE     2
 SOLVING FOR ZETA FOR LAYER     2 ZONE     2
 SOLVING FOR ZETA FOR LAYER     3 ZONE     2
 
 SOLVING FOR HEAD 

 NO OUTPUT CONTROL FOR STRESS PERIOD    5   TIME STEP  159
 SOLVING FOR ZETA FOR LAYER     1 ZONE     2
 SOLVING FOR ZETA FOR LAYER     2 ZONE     2
 SOLVING FOR ZETA FOR LAYER     3 ZONE     2
 
 SOLVING FOR HEAD 

 NO OUTPUT CONTROL FOR STRESS PERIOD    5   TIME STEP  160
 SOLVING FOR ZETA FOR LAYER     1 ZONE     2
 SOLVING FOR ZETA FOR LAYER     2 ZONE     2
 SOLVING FOR ZETA FOR LAYER     3 ZONE     2
 
 SOLVING FOR HEAD 

 NO OUTPUT CONTROL FOR STRESS PERIOD    5   TIME STEP  161
 SOLVING FOR ZETA FOR LAYER     1 ZONE     2
 SOLVING FOR ZETA FOR LAYER     2 ZONE     2
 SOLVING FOR ZETA FOR LAYER     3 ZONE     2
 
 SOLVING FOR HEAD 

 NO OUTPUT CONTROL FOR STRESS PERIOD    5   TIME STEP  162
 SOLVING FOR ZETA FOR LAYER     1 ZONE     2
 SOLVING FOR ZETA FOR LAYER     2 ZONE     2
 SOLVING FOR ZETA FOR LAYER     3 ZONE     2
 
 SOLVING FOR HEAD 

 NO OUTPUT CONTROL FOR STRESS PERIOD    5   TIME STEP  163
 SOLVING FOR ZETA FOR LAYER     1 ZONE     2
 SOLVING FOR ZETA FOR LAYER     2 ZONE     2
 SOLVING FOR ZETA FOR LAYER     3 ZONE     2
 
 SOLVING FOR HEAD 

 NO OUTPUT CONTROL FOR STRESS PERIOD    5   TIME STEP  164
 SOLVING FOR ZETA FOR LAYER     1 ZONE     2
 SOLVING FOR ZETA FOR LAYER     2 ZONE     2
 SOLVING FOR ZETA FOR LAYER     3 ZONE     2
 
 SOLVING FOR HEAD 

 NO OUTPUT CONTROL FOR STRESS PERIOD    5   TIME STEP  165
 SOLVING FOR ZETA FOR LAYER     1 ZONE     2
 SOLVING FOR ZETA FOR LAYER     2 ZONE     2
 SOLVING FOR ZETA FOR LAYER     3 ZONE     2
 
 SOLVING FOR HEAD 

 NO OUTPUT CONTROL FOR STRESS PERIOD    5   TIME STEP  166
 SOLVING FOR ZETA FOR LAYER     1 ZONE     2
 SOLVING FOR ZETA FOR LAYER     2 ZONE     2
 SOLVING FOR ZETA FOR LAYER     3 ZONE     2
 
 SOLVING FOR HEAD 

 NO OUTPUT CONTROL FOR STRESS PERIOD    5   TIME STEP  167
 SOLVING FOR ZETA FOR LAYER     1 ZONE     2
 SOLVING FOR ZETA FOR LAYER     2 ZONE     2
 SOLVING FOR ZETA FOR LAYER     3 ZONE     2
 
 SOLVING FOR HEAD 

 NO OUTPUT CONTROL FOR STRESS PERIOD    5   TIME STEP  168
 SOLVING FOR ZETA FOR LAYER     1 ZONE     2
 SOLVING FOR ZETA FOR LAYER     2 ZONE     2
 SOLVING FOR ZETA FOR LAYER     3 ZONE     2
 
 SOLVING FOR HEAD 

 NO OUTPUT CONTROL FOR STRESS PERIOD    5   TIME STEP  169
 SOLVING FOR ZETA FOR LAYER     1 ZONE     2
 SOLVING FOR ZETA FOR LAYER     2 ZONE     2
 SOLVING FOR ZETA FOR LAYER     3 ZONE     2
 
 SOLVING FOR HEAD 

 NO OUTPUT CONTROL FOR STRESS PERIOD    5   TIME STEP  170
 SOLVING FOR ZETA FOR LAYER     1 ZONE     2
 SOLVING FOR ZETA FOR LAYER     2 ZONE     2
 SOLVING FOR ZETA FOR LAYER     3 ZONE     2
 
 SOLVING FOR HEAD 

 NO OUTPUT CONTROL FOR STRESS PERIOD    5   TIME STEP  171
 SOLVING FOR ZETA FOR LAYER     1 ZONE     2
 SOLVING FOR ZETA FOR LAYER     2 ZONE     2
 SOLVING FOR ZETA FOR LAYER     3 ZONE     2
 
 SOLVING FOR HEAD 

 NO OUTPUT CONTROL FOR STRESS PERIOD    5   TIME STEP  172
 SOLVING FOR ZETA FOR LAYER     1 ZONE     2
 SOLVING FOR ZETA FOR LAYER     2 ZONE     2
 SOLVING FOR ZETA FOR LAYER     3 ZONE     2
 
 SOLVING FOR HEAD 

 NO OUTPUT CONTROL FOR STRESS PERIOD    5   TIME STEP  173
 SOLVING FOR ZETA FOR LAYER     1 ZONE     2
 SOLVING FOR ZETA FOR LAYER     2 ZONE     2
 SOLVING FOR ZETA FOR LAYER     3 ZONE     2
 
 SOLVING FOR HEAD 

 NO OUTPUT CONTROL FOR STRESS PERIOD    5   TIME STEP  174
 SOLVING FOR ZETA FOR LAYER     1 ZONE     2
 SOLVING FOR ZETA FOR LAYER     2 ZONE     2
 SOLVING FOR ZETA FOR LAYER     3 ZONE     2
 
 SOLVING FOR HEAD 

 NO OUTPUT CONTROL FOR STRESS PERIOD    5   TIME STEP  175
 SOLVING FOR ZETA FOR LAYER     1 ZONE     2
 SOLVING FOR ZETA FOR LAYER     2 ZONE     2
 SOLVING FOR ZETA FOR LAYER     3 ZONE     2
 
 SOLVING FOR HEAD 

 NO OUTPUT CONTROL FOR STRESS PERIOD    5   TIME STEP  176
 SOLVING FOR ZETA FOR LAYER     1 ZONE     2
 SOLVING FOR ZETA FOR LAYER     2 ZONE     2
 SOLVING FOR ZETA FOR LAYER     3 ZONE     2
 
 SOLVING FOR HEAD 

 NO OUTPUT CONTROL FOR STRESS PERIOD    5   TIME STEP  177
 SOLVING FOR ZETA FOR LAYER     1 ZONE     2
 SOLVING FOR ZETA FOR LAYER     2 ZONE     2
 SOLVING FOR ZETA FOR LAYER     3 ZONE     2
 
 SOLVING FOR HEAD 

 NO OUTPUT CONTROL FOR STRESS PERIOD    5   TIME STEP  178
 SOLVING FOR ZETA FOR LAYER     1 ZONE     2
 SOLVING FOR ZETA FOR LAYER     2 ZONE     2
 SOLVING FOR ZETA FOR LAYER     3 ZONE     2
 
 SOLVING FOR HEAD 

 NO OUTPUT CONTROL FOR STRESS PERIOD    5   TIME STEP  179
 SOLVING FOR ZETA FOR LAYER     1 ZONE     2
 SOLVING FOR ZETA FOR LAYER     2 ZONE     2
 SOLVING FOR ZETA FOR LAYER     3 ZONE     2
 
 SOLVING FOR HEAD 

 NO OUTPUT CONTROL FOR STRESS PERIOD    5   TIME STEP  180
 SOLVING FOR ZETA FOR LAYER     1 ZONE     2
 SOLVING FOR ZETA FOR LAYER     2 ZONE     2
 SOLVING FOR ZETA FOR LAYER     3 ZONE     2
 
 SOLVING FOR HEAD 

 NO OUTPUT CONTROL FOR STRESS PERIOD    5   TIME STEP  181
 SOLVING FOR ZETA FOR LAYER     1 ZONE     2
 SOLVING FOR ZETA FOR LAYER     2 ZONE     2
 SOLVING FOR ZETA FOR LAYER     3 ZONE     2
 
 SOLVING FOR HEAD 

 NO OUTPUT CONTROL FOR STRESS PERIOD    5   TIME STEP  182
 SOLVING FOR ZETA FOR LAYER     1 ZONE     2
 SOLVING FOR ZETA FOR LAYER     2 ZONE     2
 SOLVING FOR ZETA FOR LAYER     3 ZONE     2
 
 SOLVING FOR HEAD 

 NO OUTPUT CONTROL FOR STRESS PERIOD    5   TIME STEP  183
 SOLVING FOR ZETA FOR LAYER     1 ZONE     2
 SOLVING FOR ZETA FOR LAYER     2 ZONE     2
 SOLVING FOR ZETA FOR LAYER     3 ZONE     2
 
 SOLVING FOR HEAD 

 NO OUTPUT CONTROL FOR STRESS PERIOD    5   TIME STEP  184
 SOLVING FOR ZETA FOR LAYER     1 ZONE     2
 SOLVING FOR ZETA FOR LAYER     2 ZONE     2
 SOLVING FOR ZETA FOR LAYER     3 ZONE     2
 
 SOLVING FOR HEAD 

 NO OUTPUT CONTROL FOR STRESS PERIOD    5   TIME STEP  185
 SOLVING FOR ZETA FOR LAYER     1 ZONE     2
 SOLVING FOR ZETA FOR LAYER     2 ZONE     2
 SOLVING FOR ZETA FOR LAYER     3 ZONE     2
 
 SOLVING FOR HEAD 

 NO OUTPUT CONTROL FOR STRESS PERIOD    5   TIME STEP  186
 SOLVING FOR ZETA FOR LAYER     1 ZONE     2
 SOLVING FOR ZETA FOR LAYER     2 ZONE     2
 SOLVING FOR ZETA FOR LAYER     3 ZONE     2
 
 SOLVING FOR HEAD 

 NO OUTPUT CONTROL FOR STRESS PERIOD    5   TIME STEP  187
 SOLVING FOR ZETA FOR LAYER     1 ZONE     2
 SOLVING FOR ZETA FOR LAYER     2 ZONE     2
 SOLVING FOR ZETA FOR LAYER     3 ZONE     2
 
 SOLVING FOR HEAD 

 NO OUTPUT CONTROL FOR STRESS PERIOD    5   TIME STEP  188
 SOLVING FOR ZETA FOR LAYER     1 ZONE     2
 SOLVING FOR ZETA FOR LAYER     2 ZONE     2
 SOLVING FOR ZETA FOR LAYER     3 ZONE     2
 
 SOLVING FOR HEAD 

 NO OUTPUT CONTROL FOR STRESS PERIOD    5   TIME STEP  189
 SOLVING FOR ZETA FOR LAYER     1 ZONE     2
 SOLVING FOR ZETA FOR LAYER     2 ZONE     2
 SOLVING FOR ZETA FOR LAYER     3 ZONE     2
 
 SOLVING FOR HEAD 

 NO OUTPUT CONTROL FOR STRESS PERIOD    5   TIME STEP  190
 SOLVING FOR ZETA FOR LAYER     1 ZONE     2
 SOLVING FOR ZETA FOR LAYER     2 ZONE     2
 SOLVING FOR ZETA FOR LAYER     3 ZONE     2
 
 SOLVING FOR HEAD 

 NO OUTPUT CONTROL FOR STRESS PERIOD    5   TIME STEP  191
 SOLVING FOR ZETA FOR LAYER     1 ZONE     2
 SOLVING FOR ZETA FOR LAYER     2 ZONE     2
 SOLVING FOR ZETA FOR LAYER     3 ZONE     2
 
 SOLVING FOR HEAD 

 NO OUTPUT CONTROL FOR STRESS PERIOD    5   TIME STEP  192
 SOLVING FOR ZETA FOR LAYER     1 ZONE     2
 SOLVING FOR ZETA FOR LAYER     2 ZONE     2
 SOLVING FOR ZETA FOR LAYER     3 ZONE     2
 
 SOLVING FOR HEAD 

 NO OUTPUT CONTROL FOR STRESS PERIOD    5   TIME STEP  193
 SOLVING FOR ZETA FOR LAYER     1 ZONE     2
 SOLVING FOR ZETA FOR LAYER     2 ZONE     2
 SOLVING FOR ZETA FOR LAYER     3 ZONE     2
 
 SOLVING FOR HEAD 

 NO OUTPUT CONTROL FOR STRESS PERIOD    5   TIME STEP  194
 SOLVING FOR ZETA FOR LAYER     1 ZONE     2
 SOLVING FOR ZETA FOR LAYER     2 ZONE     2
 SOLVING FOR ZETA FOR LAYER     3 ZONE     2
 
 SOLVING FOR HEAD 

 NO OUTPUT CONTROL FOR STRESS PERIOD    5   TIME STEP  195
 SOLVING FOR ZETA FOR LAYER     1 ZONE     2
 SOLVING FOR ZETA FOR LAYER     2 ZONE     2
 SOLVING FOR ZETA FOR LAYER     3 ZONE     2
 
 SOLVING FOR HEAD 

 NO OUTPUT CONTROL FOR STRESS PERIOD    5   TIME STEP  196
 SOLVING FOR ZETA FOR LAYER     1 ZONE     2
 SOLVING FOR ZETA FOR LAYER     2 ZONE     2
 SOLVING FOR ZETA FOR LAYER     3 ZONE     2
 
 SOLVING FOR HEAD 

 NO OUTPUT CONTROL FOR STRESS PERIOD    5   TIME STEP  197
 SOLVING FOR ZETA FOR LAYER     1 ZONE     2
 SOLVING FOR ZETA FOR LAYER     2 ZONE     2
 SOLVING FOR ZETA FOR LAYER     3 ZONE     2
 
 SOLVING FOR HEAD 

 NO OUTPUT CONTROL FOR STRESS PERIOD    5   TIME STEP  198
 SOLVING FOR ZETA FOR LAYER     1 ZONE     2
 SOLVING FOR ZETA FOR LAYER     2 ZONE     2
 SOLVING FOR ZETA FOR LAYER     3 ZONE     2
 
 SOLVING FOR HEAD 

 NO OUTPUT CONTROL FOR STRESS PERIOD    5   TIME STEP  199
 SOLVING FOR ZETA FOR LAYER     1 ZONE     2
 SOLVING FOR ZETA FOR LAYER     2 ZONE     2
 SOLVING FOR ZETA FOR LAYER     3 ZONE     2
 
 SOLVING FOR HEAD 

 NO OUTPUT CONTROL FOR STRESS PERIOD    5   TIME STEP  200
 SOLVING FOR ZETA FOR LAYER     1 ZONE     2
 SOLVING FOR ZETA FOR LAYER     2 ZONE     2
 SOLVING FOR ZETA FOR LAYER     3 ZONE     2
 
 SOLVING FOR HEAD 

 NO OUTPUT CONTROL FOR STRESS PERIOD    5   TIME STEP  201
 SOLVING FOR ZETA FOR LAYER     1 ZONE     2
 SOLVING FOR ZETA FOR LAYER     2 ZONE     2
 SOLVING FOR ZETA FOR LAYER     3 ZONE     2
 
 SOLVING FOR HEAD 

 NO OUTPUT CONTROL FOR STRESS PERIOD    5   TIME STEP  202
 SOLVING FOR ZETA FOR LAYER     1 ZONE     2
 SOLVING FOR ZETA FOR LAYER     2 ZONE     2
 SOLVING FOR ZETA FOR LAYER     3 ZONE     2
 
 SOLVING FOR HEAD 

 NO OUTPUT CONTROL FOR STRESS PERIOD    5   TIME STEP  203
 SOLVING FOR ZETA FOR LAYER     1 ZONE     2
 SOLVING FOR ZETA FOR LAYER     2 ZONE     2
 SOLVING FOR ZETA FOR LAYER     3 ZONE     2
 
 SOLVING FOR HEAD 

 NO OUTPUT CONTROL FOR STRESS PERIOD    5   TIME STEP  204
 SOLVING FOR ZETA FOR LAYER     1 ZONE     2
 SOLVING FOR ZETA FOR LAYER     2 ZONE     2
 SOLVING FOR ZETA FOR LAYER     3 ZONE     2
 
 SOLVING FOR HEAD 

 NO OUTPUT CONTROL FOR STRESS PERIOD    5   TIME STEP  205
 SOLVING FOR ZETA FOR LAYER     1 ZONE     2
 SOLVING FOR ZETA FOR LAYER     2 ZONE     2
 SOLVING FOR ZETA FOR LAYER     3 ZONE     2
 
 SOLVING FOR HEAD 

 NO OUTPUT CONTROL FOR STRESS PERIOD    5   TIME STEP  206
 SOLVING FOR ZETA FOR LAYER     1 ZONE     2
 SOLVING FOR ZETA FOR LAYER     2 ZONE     2
 SOLVING FOR ZETA FOR LAYER     3 ZONE     2
 
 SOLVING FOR HEAD 

 NO OUTPUT CONTROL FOR STRESS PERIOD    5   TIME STEP  207
 SOLVING FOR ZETA FOR LAYER     1 ZONE     2
 SOLVING FOR ZETA FOR LAYER     2 ZONE     2
 SOLVING FOR ZETA FOR LAYER     3 ZONE     2
 
 SOLVING FOR HEAD 

 NO OUTPUT CONTROL FOR STRESS PERIOD    5   TIME STEP  208
 SOLVING FOR ZETA FOR LAYER     1 ZONE     2
 SOLVING FOR ZETA FOR LAYER     2 ZONE     2
 SOLVING FOR ZETA FOR LAYER     3 ZONE     2
 
 SOLVING FOR HEAD 

 NO OUTPUT CONTROL FOR STRESS PERIOD    5   TIME STEP  209
 SOLVING FOR ZETA FOR LAYER     1 ZONE     2
 SOLVING FOR ZETA FOR LAYER     2 ZONE     2
 SOLVING FOR ZETA FOR LAYER     3 ZONE     2
 
 SOLVING FOR HEAD 

 NO OUTPUT CONTROL FOR STRESS PERIOD    5   TIME STEP  210
 SOLVING FOR ZETA FOR LAYER     1 ZONE     2
 SOLVING FOR ZETA FOR LAYER     2 ZONE     2
 SOLVING FOR ZETA FOR LAYER     3 ZONE     2
 
 SOLVING FOR HEAD 

 NO OUTPUT CONTROL FOR STRESS PERIOD    5   TIME STEP  211
 SOLVING FOR ZETA FOR LAYER     1 ZONE     2
 SOLVING FOR ZETA FOR LAYER     2 ZONE     2
 SOLVING FOR ZETA FOR LAYER     3 ZONE     2
 
 SOLVING FOR HEAD 

 NO OUTPUT CONTROL FOR STRESS PERIOD    5   TIME STEP  212
 SOLVING FOR ZETA FOR LAYER     1 ZONE     2
 SOLVING FOR ZETA FOR LAYER     2 ZONE     2
 SOLVING FOR ZETA FOR LAYER     3 ZONE     2
 
 SOLVING FOR HEAD 

 NO OUTPUT CONTROL FOR STRESS PERIOD    5   TIME STEP  213
 SOLVING FOR ZETA FOR LAYER     1 ZONE     2
 SOLVING FOR ZETA FOR LAYER     2 ZONE     2
 SOLVING FOR ZETA FOR LAYER     3 ZONE     2
 
 SOLVING FOR HEAD 

 NO OUTPUT CONTROL FOR STRESS PERIOD    5   TIME STEP  214
 SOLVING FOR ZETA FOR LAYER     1 ZONE     2
 SOLVING FOR ZETA FOR LAYER     2 ZONE     2
 SOLVING FOR ZETA FOR LAYER     3 ZONE     2
 
 SOLVING FOR HEAD 

 NO OUTPUT CONTROL FOR STRESS PERIOD    5   TIME STEP  215
 SOLVING FOR ZETA FOR LAYER     1 ZONE     2
 SOLVING FOR ZETA FOR LAYER     2 ZONE     2
 SOLVING FOR ZETA FOR LAYER     3 ZONE     2
 
 SOLVING FOR HEAD 

 NO OUTPUT CONTROL FOR STRESS PERIOD    5   TIME STEP  216
 SOLVING FOR ZETA FOR LAYER     1 ZONE     2
 SOLVING FOR ZETA FOR LAYER     2 ZONE     2
 SOLVING FOR ZETA FOR LAYER     3 ZONE     2
 
 SOLVING FOR HEAD 

 NO OUTPUT CONTROL FOR STRESS PERIOD    5   TIME STEP  217
 SOLVING FOR ZETA FOR LAYER     1 ZONE     2
 SOLVING FOR ZETA FOR LAYER     2 ZONE     2
 SOLVING FOR ZETA FOR LAYER     3 ZONE     2
 
 SOLVING FOR HEAD 

 NO OUTPUT CONTROL FOR STRESS PERIOD    5   TIME STEP  218
 SOLVING FOR ZETA FOR LAYER     1 ZONE     2
 SOLVING FOR ZETA FOR LAYER     2 ZONE     2
 SOLVING FOR ZETA FOR LAYER     3 ZONE     2
 
 SOLVING FOR HEAD 

 NO OUTPUT CONTROL FOR STRESS PERIOD    5   TIME STEP  219
 SOLVING FOR ZETA FOR LAYER     1 ZONE     2
 SOLVING FOR ZETA FOR LAYER     2 ZONE     2
 SOLVING FOR ZETA FOR LAYER     3 ZONE     2
 
 SOLVING FOR HEAD 

 NO OUTPUT CONTROL FOR STRESS PERIOD    5   TIME STEP  220
 SOLVING FOR ZETA FOR LAYER     1 ZONE     2
 SOLVING FOR ZETA FOR LAYER     2 ZONE     2
 SOLVING FOR ZETA FOR LAYER     3 ZONE     2
 
 SOLVING FOR HEAD 

 NO OUTPUT CONTROL FOR STRESS PERIOD    5   TIME STEP  221
 SOLVING FOR ZETA FOR LAYER     1 ZONE     2
 SOLVING FOR ZETA FOR LAYER     2 ZONE     2
 SOLVING FOR ZETA FOR LAYER     3 ZONE     2
 
 SOLVING FOR HEAD 

 NO OUTPUT CONTROL FOR STRESS PERIOD    5   TIME STEP  222
 SOLVING FOR ZETA FOR LAYER     1 ZONE     2
 SOLVING FOR ZETA FOR LAYER     2 ZONE     2
 SOLVING FOR ZETA FOR LAYER     3 ZONE     2
 
 SOLVING FOR HEAD 

 NO OUTPUT CONTROL FOR STRESS PERIOD    5   TIME STEP  223
 SOLVING FOR ZETA FOR LAYER     1 ZONE     2
 SOLVING FOR ZETA FOR LAYER     2 ZONE     2
 SOLVING FOR ZETA FOR LAYER     3 ZONE     2
 
 SOLVING FOR HEAD 

 NO OUTPUT CONTROL FOR STRESS PERIOD    5   TIME STEP  224
 SOLVING FOR ZETA FOR LAYER     1 ZONE     2
 SOLVING FOR ZETA FOR LAYER     2 ZONE     2
 SOLVING FOR ZETA FOR LAYER     3 ZONE     2
 
 SOLVING FOR HEAD 

 NO OUTPUT CONTROL FOR STRESS PERIOD    5   TIME STEP  225
 SOLVING FOR ZETA FOR LAYER     1 ZONE     2
 SOLVING FOR ZETA FOR LAYER     2 ZONE     2
 SOLVING FOR ZETA FOR LAYER     3 ZONE     2
 
 SOLVING FOR HEAD 

 NO OUTPUT CONTROL FOR STRESS PERIOD    5   TIME STEP  226
 SOLVING FOR ZETA FOR LAYER     1 ZONE     2
 SOLVING FOR ZETA FOR LAYER     2 ZONE     2
 SOLVING FOR ZETA FOR LAYER     3 ZONE     2
 
 SOLVING FOR HEAD 

 NO OUTPUT CONTROL FOR STRESS PERIOD    5   TIME STEP  227
 SOLVING FOR ZETA FOR LAYER     1 ZONE     2
 SOLVING FOR ZETA FOR LAYER     2 ZONE     2
 SOLVING FOR ZETA FOR LAYER     3 ZONE     2
 
 SOLVING FOR HEAD 

 NO OUTPUT CONTROL FOR STRESS PERIOD    5   TIME STEP  228
 SOLVING FOR ZETA FOR LAYER     1 ZONE     2
 SOLVING FOR ZETA FOR LAYER     2 ZONE     2
 SOLVING FOR ZETA FOR LAYER     3 ZONE     2
 
 SOLVING FOR HEAD 

 NO OUTPUT CONTROL FOR STRESS PERIOD    5   TIME STEP  229
 SOLVING FOR ZETA FOR LAYER     1 ZONE     2
 SOLVING FOR ZETA FOR LAYER     2 ZONE     2
 SOLVING FOR ZETA FOR LAYER     3 ZONE     2
 
 SOLVING FOR HEAD 

 NO OUTPUT CONTROL FOR STRESS PERIOD    5   TIME STEP  230
 SOLVING FOR ZETA FOR LAYER     1 ZONE     2
 SOLVING FOR ZETA FOR LAYER     2 ZONE     2
 SOLVING FOR ZETA FOR LAYER     3 ZONE     2
 
 SOLVING FOR HEAD 

 NO OUTPUT CONTROL FOR STRESS PERIOD    5   TIME STEP  231
 SOLVING FOR ZETA FOR LAYER     1 ZONE     2
 SOLVING FOR ZETA FOR LAYER     2 ZONE     2
 SOLVING FOR ZETA FOR LAYER     3 ZONE     2
 
 SOLVING FOR HEAD 

 NO OUTPUT CONTROL FOR STRESS PERIOD    5   TIME STEP  232
 SOLVING FOR ZETA FOR LAYER     1 ZONE     2
 SOLVING FOR ZETA FOR LAYER     2 ZONE     2
 SOLVING FOR ZETA FOR LAYER     3 ZONE     2
 
 SOLVING FOR HEAD 

 NO OUTPUT CONTROL FOR STRESS PERIOD    5   TIME STEP  233
 SOLVING FOR ZETA FOR LAYER     1 ZONE     2
 SOLVING FOR ZETA FOR LAYER     2 ZONE     2
 SOLVING FOR ZETA FOR LAYER     3 ZONE     2
 
 SOLVING FOR HEAD 

 NO OUTPUT CONTROL FOR STRESS PERIOD    5   TIME STEP  234
 SOLVING FOR ZETA FOR LAYER     1 ZONE     2
 SOLVING FOR ZETA FOR LAYER     2 ZONE     2
 SOLVING FOR ZETA FOR LAYER     3 ZONE     2
 
 SOLVING FOR HEAD 

 NO OUTPUT CONTROL FOR STRESS PERIOD    5   TIME STEP  235
 SOLVING FOR ZETA FOR LAYER     1 ZONE     2
 SOLVING FOR ZETA FOR LAYER     2 ZONE     2
 SOLVING FOR ZETA FOR LAYER     3 ZONE     2
 
 SOLVING FOR HEAD 

 NO OUTPUT CONTROL FOR STRESS PERIOD    5   TIME STEP  236
 SOLVING FOR ZETA FOR LAYER     1 ZONE     2
 SOLVING FOR ZETA FOR LAYER     2 ZONE     2
 SOLVING FOR ZETA FOR LAYER     3 ZONE     2
 
 SOLVING FOR HEAD 

 NO OUTPUT CONTROL FOR STRESS PERIOD    5   TIME STEP  237
 SOLVING FOR ZETA FOR LAYER     1 ZONE     2
 SOLVING FOR ZETA FOR LAYER     2 ZONE     2
 SOLVING FOR ZETA FOR LAYER     3 ZONE     2
 
 SOLVING FOR HEAD 

 NO OUTPUT CONTROL FOR STRESS PERIOD    5   TIME STEP  238
 SOLVING FOR ZETA FOR LAYER     1 ZONE     2
 SOLVING FOR ZETA FOR LAYER     2 ZONE     2
 SOLVING FOR ZETA FOR LAYER     3 ZONE     2
 
 SOLVING FOR HEAD 

 NO OUTPUT CONTROL FOR STRESS PERIOD    5   TIME STEP  239
 SOLVING FOR ZETA FOR LAYER     1 ZONE     2
 SOLVING FOR ZETA FOR LAYER     2 ZONE     2
 SOLVING FOR ZETA FOR LAYER     3 ZONE     2
 
 SOLVING FOR HEAD 

 NO OUTPUT CONTROL FOR STRESS PERIOD    5   TIME STEP  240
 SOLVING FOR ZETA FOR LAYER     1 ZONE     2
 SOLVING FOR ZETA FOR LAYER     2 ZONE     2
 SOLVING FOR ZETA FOR LAYER     3 ZONE     2
 
 SOLVING FOR HEAD 

 NO OUTPUT CONTROL FOR STRESS PERIOD    5   TIME STEP  241
 SOLVING FOR ZETA FOR LAYER     1 ZONE     2
 SOLVING FOR ZETA FOR LAYER     2 ZONE     2
 SOLVING FOR ZETA FOR LAYER     3 ZONE     2
 
 SOLVING FOR HEAD 

 NO OUTPUT CONTROL FOR STRESS PERIOD    5   TIME STEP  242
 SOLVING FOR ZETA FOR LAYER     1 ZONE     2
 SOLVING FOR ZETA FOR LAYER     2 ZONE     2
 SOLVING FOR ZETA FOR LAYER     3 ZONE     2
 
 SOLVING FOR HEAD 

 NO OUTPUT CONTROL FOR STRESS PERIOD    5   TIME STEP  243
 SOLVING FOR ZETA FOR LAYER     1 ZONE     2
 SOLVING FOR ZETA FOR LAYER     2 ZONE     2
 SOLVING FOR ZETA FOR LAYER     3 ZONE     2
 
 SOLVING FOR HEAD 

 NO OUTPUT CONTROL FOR STRESS PERIOD    5   TIME STEP  244
 SOLVING FOR ZETA FOR LAYER     1 ZONE     2
 SOLVING FOR ZETA FOR LAYER     2 ZONE     2
 SOLVING FOR ZETA FOR LAYER     3 ZONE     2
 
 SOLVING FOR HEAD 

 NO OUTPUT CONTROL FOR STRESS PERIOD    5   TIME STEP  245
 SOLVING FOR ZETA FOR LAYER     1 ZONE     2
 SOLVING FOR ZETA FOR LAYER     2 ZONE     2
 SOLVING FOR ZETA FOR LAYER     3 ZONE     2
 
 SOLVING FOR HEAD 

 NO OUTPUT CONTROL FOR STRESS PERIOD    5   TIME STEP  246
 SOLVING FOR ZETA FOR LAYER     1 ZONE     2
 SOLVING FOR ZETA FOR LAYER     2 ZONE     2
 SOLVING FOR ZETA FOR LAYER     3 ZONE     2
 
 SOLVING FOR HEAD 

 NO OUTPUT CONTROL FOR STRESS PERIOD    5   TIME STEP  247
 SOLVING FOR ZETA FOR LAYER     1 ZONE     2
 SOLVING FOR ZETA FOR LAYER     2 ZONE     2
 SOLVING FOR ZETA FOR LAYER     3 ZONE     2
 
 SOLVING FOR HEAD 

 NO OUTPUT CONTROL FOR STRESS PERIOD    5   TIME STEP  248
 SOLVING FOR ZETA FOR LAYER     1 ZONE     2
 SOLVING FOR ZETA FOR LAYER     2 ZONE     2
 SOLVING FOR ZETA FOR LAYER     3 ZONE     2
 
 SOLVING FOR HEAD 

 NO OUTPUT CONTROL FOR STRESS PERIOD    5   TIME STEP  249
 SOLVING FOR ZETA FOR LAYER     1 ZONE     2
 SOLVING FOR ZETA FOR LAYER     2 ZONE     2
 SOLVING FOR ZETA FOR LAYER     3 ZONE     2
 
 SOLVING FOR HEAD 

 NO OUTPUT CONTROL FOR STRESS PERIOD    5   TIME STEP  250
 SOLVING FOR ZETA FOR LAYER     1 ZONE     2
 SOLVING FOR ZETA FOR LAYER     2 ZONE     2
 SOLVING FOR ZETA FOR LAYER     3 ZONE     2
 
 SOLVING FOR HEAD 

 NO OUTPUT CONTROL FOR STRESS PERIOD    5   TIME STEP  251
 SOLVING FOR ZETA FOR LAYER     1 ZONE     2
 SOLVING FOR ZETA FOR LAYER     2 ZONE     2
 SOLVING FOR ZETA FOR LAYER     3 ZONE     2
 
 SOLVING FOR HEAD 

 NO OUTPUT CONTROL FOR STRESS PERIOD    5   TIME STEP  252
 SOLVING FOR ZETA FOR LAYER     1 ZONE     2
 SOLVING FOR ZETA FOR LAYER     2 ZONE     2
 SOLVING FOR ZETA FOR LAYER     3 ZONE     2
 
 SOLVING FOR HEAD 

 NO OUTPUT CONTROL FOR STRESS PERIOD    5   TIME STEP  253
 SOLVING FOR ZETA FOR LAYER     1 ZONE     2
 SOLVING FOR ZETA FOR LAYER     2 ZONE     2
 SOLVING FOR ZETA FOR LAYER     3 ZONE     2
 
 SOLVING FOR HEAD 

 NO OUTPUT CONTROL FOR STRESS PERIOD    5   TIME STEP  254
 SOLVING FOR ZETA FOR LAYER     1 ZONE     2
 SOLVING FOR ZETA FOR LAYER     2 ZONE     2
 SOLVING FOR ZETA FOR LAYER     3 ZONE     2
 
 SOLVING FOR HEAD 

 NO OUTPUT CONTROL FOR STRESS PERIOD    5   TIME STEP  255
 SOLVING FOR ZETA FOR LAYER     1 ZONE     2
 SOLVING FOR ZETA FOR LAYER     2 ZONE     2
 SOLVING FOR ZETA FOR LAYER     3 ZONE     2
 
 SOLVING FOR HEAD 

 NO OUTPUT CONTROL FOR STRESS PERIOD    5   TIME STEP  256
 SOLVING FOR ZETA FOR LAYER     1 ZONE     2
 SOLVING FOR ZETA FOR LAYER     2 ZONE     2
 SOLVING FOR ZETA FOR LAYER     3 ZONE     2
 
 SOLVING FOR HEAD 

 NO OUTPUT CONTROL FOR STRESS PERIOD    5   TIME STEP  257
 SOLVING FOR ZETA FOR LAYER     1 ZONE     2
 SOLVING FOR ZETA FOR LAYER     2 ZONE     2
 SOLVING FOR ZETA FOR LAYER     3 ZONE     2
 
 SOLVING FOR HEAD 

 NO OUTPUT CONTROL FOR STRESS PERIOD    5   TIME STEP  258
 SOLVING FOR ZETA FOR LAYER     1 ZONE     2
 SOLVING FOR ZETA FOR LAYER     2 ZONE     2
 SOLVING FOR ZETA FOR LAYER     3 ZONE     2
 
 SOLVING FOR HEAD 

 NO OUTPUT CONTROL FOR STRESS PERIOD    5   TIME STEP  259
 SOLVING FOR ZETA FOR LAYER     1 ZONE     2
 SOLVING FOR ZETA FOR LAYER     2 ZONE     2
 SOLVING FOR ZETA FOR LAYER     3 ZONE     2
 
 SOLVING FOR HEAD 

 NO OUTPUT CONTROL FOR STRESS PERIOD    5   TIME STEP  260
 SOLVING FOR ZETA FOR LAYER     1 ZONE     2
 SOLVING FOR ZETA FOR LAYER     2 ZONE     2
 SOLVING FOR ZETA FOR LAYER     3 ZONE     2
 
 SOLVING FOR HEAD 

 NO OUTPUT CONTROL FOR STRESS PERIOD    5   TIME STEP  261
 SOLVING FOR ZETA FOR LAYER     1 ZONE     2
 SOLVING FOR ZETA FOR LAYER     2 ZONE     2
 SOLVING FOR ZETA FOR LAYER     3 ZONE     2
 
 SOLVING FOR HEAD 

 NO OUTPUT CONTROL FOR STRESS PERIOD    5   TIME STEP  262
 SOLVING FOR ZETA FOR LAYER     1 ZONE     2
 SOLVING FOR ZETA FOR LAYER     2 ZONE     2
 SOLVING FOR ZETA FOR LAYER     3 ZONE     2
 
 SOLVING FOR HEAD 

 NO OUTPUT CONTROL FOR STRESS PERIOD    5   TIME STEP  263
 SOLVING FOR ZETA FOR LAYER     1 ZONE     2
 SOLVING FOR ZETA FOR LAYER     2 ZONE     2
 SOLVING FOR ZETA FOR LAYER     3 ZONE     2
 
 SOLVING FOR HEAD 

 NO OUTPUT CONTROL FOR STRESS PERIOD    5   TIME STEP  264
 SOLVING FOR ZETA FOR LAYER     1 ZONE     2
 SOLVING FOR ZETA FOR LAYER     2 ZONE     2
 SOLVING FOR ZETA FOR LAYER     3 ZONE     2
 
 SOLVING FOR HEAD 

 NO OUTPUT CONTROL FOR STRESS PERIOD    5   TIME STEP  265
 SOLVING FOR ZETA FOR LAYER     1 ZONE     2
 SOLVING FOR ZETA FOR LAYER     2 ZONE     2
 SOLVING FOR ZETA FOR LAYER     3 ZONE     2
 
 SOLVING FOR HEAD 

 NO OUTPUT CONTROL FOR STRESS PERIOD    5   TIME STEP  266
 SOLVING FOR ZETA FOR LAYER     1 ZONE     2
 SOLVING FOR ZETA FOR LAYER     2 ZONE     2
 SOLVING FOR ZETA FOR LAYER     3 ZONE     2
 
 SOLVING FOR HEAD 

 NO OUTPUT CONTROL FOR STRESS PERIOD    5   TIME STEP  267
 SOLVING FOR ZETA FOR LAYER     1 ZONE     2
 SOLVING FOR ZETA FOR LAYER     2 ZONE     2
 SOLVING FOR ZETA FOR LAYER     3 ZONE     2
 
 SOLVING FOR HEAD 

 NO OUTPUT CONTROL FOR STRESS PERIOD    5   TIME STEP  268
 SOLVING FOR ZETA FOR LAYER     1 ZONE     2
 SOLVING FOR ZETA FOR LAYER     2 ZONE     2
 SOLVING FOR ZETA FOR LAYER     3 ZONE     2
 
 SOLVING FOR HEAD 

 NO OUTPUT CONTROL FOR STRESS PERIOD    5   TIME STEP  269
 SOLVING FOR ZETA FOR LAYER     1 ZONE     2
 SOLVING FOR ZETA FOR LAYER     2 ZONE     2
 SOLVING FOR ZETA FOR LAYER     3 ZONE     2
 
 SOLVING FOR HEAD 

 NO OUTPUT CONTROL FOR STRESS PERIOD    5   TIME STEP  270
 SOLVING FOR ZETA FOR LAYER     1 ZONE     2
 SOLVING FOR ZETA FOR LAYER     2 ZONE     2
 SOLVING FOR ZETA FOR LAYER     3 ZONE     2
 
 SOLVING FOR HEAD 

 NO OUTPUT CONTROL FOR STRESS PERIOD    5   TIME STEP  271
 SOLVING FOR ZETA FOR LAYER     1 ZONE     2
 SOLVING FOR ZETA FOR LAYER     2 ZONE     2
 SOLVING FOR ZETA FOR LAYER     3 ZONE     2
 
 SOLVING FOR HEAD 

 NO OUTPUT CONTROL FOR STRESS PERIOD    5   TIME STEP  272
 SOLVING FOR ZETA FOR LAYER     1 ZONE     2
 SOLVING FOR ZETA FOR LAYER     2 ZONE     2
 SOLVING FOR ZETA FOR LAYER     3 ZONE     2
 
 SOLVING FOR HEAD 

 OUTPUT CONTROL FOR STRESS PERIOD    5   TIME STEP  273
    PRINT BUDGET
    SAVE HEAD FOR ALL LAYERS
 SOLVING FOR ZETA FOR LAYER     1 ZONE     2
 SOLVING FOR ZETA FOR LAYER     2 ZONE     2
 SOLVING FOR ZETA FOR LAYER     3 ZONE     2
 UBUDSV SAVING "      ZETASRF  1" ON UNIT 55 AT TIME STEP273, STRESS PERIOD    5


                      VOLUMETRIC SWI ZONE BUDGET FOR ENTIRE MODEL
                     AT END OF TIME STEP  273 IN STRESS PERIOD   5
                                      ZONE     1
  -----------------------------------------------------------------------------------

        CUMULATIVE VOLUMES      L**3       RATES FOR THIS TIME STEP      L**3/T
        ------------------                 ------------------------

              IN:                                      IN:
              ---                                      ---
             BOUNDARIES =   421553760.0000            BOUNDARIES =        5861.7969
          CONSTANT HEAD =           0.0000         CONSTANT HEAD =           0.0000
            ZONE CHANGE =    13339805.0000           ZONE CHANGE =         294.1227
       ZONE CHG TIP/TOE =   217983984.0000      ZONE CHG TIP/TOE =         524.6086
            ZONE MIXING =     1078406.8750           ZONE MIXING =           0.0000

               TOTAL IN =   653955968.0000              TOTAL IN =        6680.5278

             OUT:                                     OUT:
             ----                                     ----
             BOUNDARIES =   273921984.0000            BOUNDARIES =        4201.4614
          CONSTANT HEAD =           0.0000         CONSTANT HEAD =           0.0000
            ZONE CHANGE =   231228176.0000           ZONE CHANGE =         723.0513
       ZONE CHG TIP/TOE =      393919.9375      ZONE CHG TIP/TOE =          77.0329
            ZONE MIXING =    61499648.0000           ZONE MIXING =         538.6826

              TOTAL OUT =   567043712.0000             TOTAL OUT =        5540.2280

               IN - OUT =    86912256.0000              IN - OUT =        1140.2998

    PERCENT DISCREPANCY =          14.24     PERCENT DISCREPANCY =          18.66



                      VOLUMETRIC SWI ZONE BUDGET FOR ENTIRE MODEL
                     AT END OF TIME STEP  273 IN STRESS PERIOD   5
                                      ZONE     2
  -----------------------------------------------------------------------------------

        CUMULATIVE VOLUMES      L**3       RATES FOR THIS TIME STEP      L**3/T
        ------------------                 ------------------------

              IN:                                      IN:
              ---                                      ---
             BOUNDARIES =    83600120.0000            BOUNDARIES =         462.0692
          CONSTANT HEAD =           0.0000         CONSTANT HEAD =           0.0000
            ZONE CHANGE =    13068182.0000           ZONE CHANGE =         149.7230
       ZONE CHG TIP/TOE =   141192768.0000      ZONE CHG TIP/TOE =         202.1669
            ZONE MIXING =    61499648.0000           ZONE MIXING =         538.6826

               TOTAL IN =   299360704.0000              TOTAL IN =        1352.6416

             OUT:                                     OUT:
             ----                                     ----
             BOUNDARIES =   231489472.0000            BOUNDARIES =        2233.1211
          CONSTANT HEAD =           0.0000         CONSTANT HEAD =           0.0000
            ZONE CHANGE =   153880976.0000           ZONE CHANGE =         219.7404
       ZONE CHG TIP/TOE =      139669.0625      ZONE CHG TIP/TOE =          15.1294
            ZONE MIXING =     1078406.8750           ZONE MIXING =           0.0000

              TOTAL OUT =   386588512.0000             TOTAL OUT =        2467.9910

               IN - OUT =   -87227808.0000              IN - OUT =       -1115.3494

    PERCENT DISCREPANCY =         -25.43     PERCENT DISCREPANCY =         -58.39


 HEAD WILL BE SAVED ON UNIT   51 AT END OF TIME STEP  273, STRESS PERIOD    5
1
  VOLUMETRIC BUDGET FOR ENTIRE MODEL AT END OF TIME STEP  273, STRESS PERIOD   5
  ------------------------------------------------------------------------------

     CUMULATIVE VOLUMES      L**3       RATES FOR THIS TIME STEP      L**3/T
     ------------------                 ------------------------

           IN:                                      IN:
           ---                                      ---
             STORAGE =      212530.0312               STORAGE =         168.4757
       CONSTANT HEAD =           0.0000         CONSTANT HEAD =           0.0000
          SWIADDTOCH =           0.0000            SWIADDTOCH =           0.0000
               WELLS =           0.0000                 WELLS =           0.0000
     HEAD DEP BOUNDS =    73754800.0000       HEAD DEP BOUNDS =         462.3217
            RECHARGE =   431397056.0000              RECHARGE =        5861.7627

            TOTAL IN =   505364384.0000              TOTAL IN =        6492.5601

          OUT:                                     OUT:
          ----                                     ----
             STORAGE =      215030.7812               STORAGE =          61.4302
       CONSTANT HEAD =           0.0000         CONSTANT HEAD =           0.0000
          SWIADDTOCH =           0.0000            SWIADDTOCH =           0.0000
               WELLS =       19051.3418                 WELLS =           0.0000
     HEAD DEP BOUNDS =   505393088.0000       HEAD DEP BOUNDS =        6435.0352
            RECHARGE =           0.0000              RECHARGE =           0.0000

           TOTAL OUT =   505627168.0000             TOTAL OUT =        6496.4653

            IN - OUT =     -262784.0000              IN - OUT =          -3.9053

 PERCENT DISCREPANCY =          -0.05     PERCENT DISCREPANCY =          -0.06






         TIME SUMMARY AT END OF TIME STEP  273 IN STRESS PERIOD    5
                    SECONDS     MINUTES      HOURS       DAYS        YEARS
                    -----------------------------------------------------------
   TIME STEP LENGTH  86400.      1440.0      24.000      1.0000     2.73785E-03
 STRESS PERIOD TIME 2.35872E+07 3.93120E+05  6552.0      273.00     0.74743    
         TOTAL TIME 6.37461E+09 1.06243E+08 1.77072E+06  73780.      202.00    
1
1
                            STRESS PERIOD NO.    6, LENGTH =   92.00000    
                            -----------------------------------------------

                              NUMBER OF TIME STEPS =    92

                               MULTIPLIER FOR DELT =     1.000

                            INITIAL TIME STEP SIZE =   1.000000    

 WELL NO.  LAYER   ROW   COL   STRESS RATE         
 --------------------------------------------------
      1      1     61     33      -7.270    
      2      1     59     38      -7.270    
      3      2     59     43      -7.270    
      4      2     57     43      -7.270    
      5      2     54     36      -7.270    
      6      2     52     38      -7.270    
      7      2     49     48       0.000    
      8      2     45     36       0.000    
      9      2     44     38      -7.270    
     10      1     43     40      -7.270    
     11      2     43     49      -7.270    
     12      2     40     39      -1.450    
     13      3     38     43      -14.85    
     14      1     37     38      -7.270    
     15      2     31     47      -7.270    
     16      2     27     41      -7.270    

     16 WELLS

 BOUND. NO. LAYER   ROW   COL     STAGE      CONDUCTANCE         
 ----------------------------------------------------------------
      1      1      1      1      0.3710          0.6804E+06
      2      1      1      2      0.3728          0.6804E+06
      3      1      1      3      0.3752          0.6804E+06
      4      1      1      4      0.3788          0.6804E+06
      5      1      1      5      0.3831          0.6804E+06
      6      1      1      6      0.3866          0.6804E+06
      7      1      1      7      0.3899          0.6804E+06
      8      1      1      8      0.3923          0.6804E+06
      9      1      1      9      0.3929          0.6804E+06
     10      1      1     10      0.3920          0.6804E+06
     11      1      1     11      0.3898          0.6804E+06
     12      1      1     12      0.3858          0.6804E+06
     13      1      1     13      0.3804          0.6804E+06
     14      1      1     14      0.3745          0.6804E+06
     15      1      1     15      0.3653          0.6804E+06
     16      1      1     16      0.3536          0.6804E+06
     17      1      1     17      0.3377          0.6804E+06
     18      1      1     18      0.3210          0.6804E+06
     19      1      1     19      0.3060          0.6804E+06
     20      1      1     20      0.2933          0.6804E+06
     21      1      1     21      0.2859          0.6804E+06
     22      1      1     22      0.2825          0.6804E+06
     23      1      1     23      0.2793          0.6804E+06
     24      1      1     24      0.2771          0.6804E+06
     25      1      1     25      0.2757          0.6804E+06
     26      1      1     26      0.2760          0.6804E+06
     27      1      1     27      0.2781          0.6804E+06
     28      1      1     28      0.2828          0.6804E+06
     29      1      1     29      0.2895          0.6804E+06
     30      1      1     30      0.2965          0.6804E+06
     31      1      1     31      0.3052          0.6804E+06
     32      1      1     32      0.3127          0.6804E+06
     33      1      1     33      0.3202          0.6804E+06
     34      1      1     34      0.3261          0.6804E+06
     35      1      1     35      0.3301          0.6804E+06
     36      1      1     36      0.3340          0.6804E+06
     37      1      1     37      0.3365          0.6804E+06
     38      1      1     38      0.3374          0.6804E+06
     39      1      1     39      0.3370          0.6804E+06
     40      1      1     40      0.3368          0.6804E+06
     41      1      1     41      0.3368          0.6804E+06
     42      1      1     42      0.3373          0.6804E+06
     43      1      1     43      0.3383          0.6804E+06
     44      1      1     44      0.3403          0.6804E+06
     45      1      1     45      0.3423          0.6804E+06
     46      1      1     46      0.3432          0.6804E+06
     47      1      1     47      0.3432          0.6804E+06
     48      1      1     48      0.3427          0.6804E+06
     49      1      1     49      0.3409          0.6804E+06
     50      1      1     50      0.3379          0.6804E+06
     51      1      1     51      0.3343          0.6804E+06
     52      1      1     52      0.3286          0.6804E+06
     53      1      1     53      0.3224          0.6804E+06
     54      1      1     54      0.3148          0.6804E+06
     55      1      1     55      0.3072          0.6804E+06
     56      1      1     56      0.3003          0.6804E+06
     57      1      1     57      0.2926          0.6804E+06
     58      1      1     58      0.2852          0.6804E+06
     59      1      1     59      0.2786          0.6804E+06
     60      1      1     60      0.2703          0.6804E+06
     61      1      1     61      0.2632          0.6804E+06
     62      1      1     62      0.2554          0.6804E+06
     63      1      1     63      0.2480          0.6804E+06
     64      1      1     64      0.2423          0.6804E+06
     65      1      1     65      0.2365          0.6804E+06
     66      1      1     66      0.2312          0.6804E+06
     67      1      1     67      0.2269          0.6804E+06
     68      1      1     68      0.2222          0.6804E+06
     69      1      1     69      0.2181          0.6804E+06
     70      1      1     70      0.2135          0.6804E+06
     71      1      1     71      0.2088          0.6804E+06
     72      1      1     72      0.2045          0.6804E+06
     73      1      1     73      0.1995          0.6804E+06
     74      1      1     74      0.1936          0.6804E+06
     75      1      1     75      0.1881          0.6804E+06
     76      1      1     76      0.1818          0.6804E+06
     77      1      1     77      0.1766          0.6804E+06
     78      1      1     78      0.1703          0.6804E+06
     79      1      1     79      0.1635          0.6804E+06
     80      1      1     80      0.1576          0.6804E+06
     81      1      1     81      0.1510          0.6804E+06
     82      1      1     82      0.1439          0.6804E+06
     83      1      1     83      0.1376          0.6804E+06
     84      1      1     84      0.1302          0.6804E+06
     85      1      1     85      0.1231          0.6804E+06
     86      1      1     86      0.1147          0.6804E+06
     87      1      1     87      0.1067          0.6804E+06
     88      1      1     88      0.9976E-01      0.6804E+06
     89      1      1     89      0.9168E-01      0.6804E+06
     90      1      1     90      0.8364E-01      0.6804E+06
     91      1      1     91      0.7626E-01      0.6804E+06
     92      1      1     92      0.6793E-01      0.6804E+06
     93      1      1     93      0.6125E-01      0.6804E+06
     94      1      1     94      0.5478E-01      0.6804E+06
     95      1      1     95      0.4816E-01      0.6804E+06
     96      1      1     96      0.4179E-01      0.6804E+06
     97      1      1     97      0.3279E-01      0.6804E+06
     98      1      1     98      0.2161E-01      0.6804E+06
     99      1      1     99      0.7204E-02      0.6804E+06
    100      1      1    100       0.000          0.6804E+06
    101      1      2      1      0.3913          0.6804E+06
    102      1      2      2      0.3922          0.6804E+06
    103      1      2      3      0.3938          0.6804E+06
    104      1      2      4      0.3965          0.6804E+06
    105      1      2      5      0.3999          0.6804E+06
    106      1      2      6      0.4025          0.6804E+06
    107      1      2      7      0.4047          0.6804E+06
    108      1      2      8      0.4059          0.6804E+06
    109      1      2      9      0.4053          0.6804E+06
    110      1      2     10      0.4027          0.6804E+06
    111      1      2     11      0.3992          0.6804E+06
    112      1      2     12      0.3938          0.6804E+06
    113      1      2     13      0.3871          0.6804E+06
    114      1      2     14      0.3803          0.6804E+06
    115      1      2     15      0.3704          0.6804E+06
    116      1      2     16      0.3595          0.6804E+06
    117      1      2     17      0.3453          0.6804E+06
    118      1      2     18      0.3303          0.6804E+06
    119      1      2     19      0.3173          0.6804E+06
    120      1      2     20      0.3050          0.6804E+06
    121      1      2     21      0.2960          0.6804E+06
    122      1      2     22      0.2899          0.6804E+06
    123      1      2     23      0.2837          0.6804E+06
    124      1      2     24      0.2789          0.6804E+06
    125      1      2     25      0.2743          0.6804E+06
    126      1      2     26      0.2719          0.6804E+06
    127      1      2     27      0.2726          0.6804E+06
    128      1      2     28      0.2766          0.6804E+06
    129      1      2     29      0.2834          0.6804E+06
    130      1      2     30      0.2910          0.6804E+06
    131      1      2     31      0.3009          0.6804E+06
    132      1      2     32      0.3095          0.6804E+06
    133      1      2     33      0.3174          0.6804E+06
    134      1      2     34      0.3222          0.6804E+06
    135      1      2     35      0.3237          0.6804E+06
    136      1      2     36      0.3243          0.6804E+06
    137      1      2     37      0.3245          0.6804E+06
    138      1      2     38      0.3251          0.6804E+06
    139      1      2     39      0.3265          0.6804E+06
    140      1      2     40      0.3272          0.6804E+06
    141      1      2     41      0.3274          0.6804E+06
    142      1      2     42      0.3280          0.6804E+06
    143      1      2     43      0.3294          0.6804E+06
    144      1      2     44      0.3322          0.6804E+06
    145      1      2     45      0.3351          0.6804E+06
    146      1      2     46      0.3370          0.6804E+06
    147      1      2     47      0.3380          0.6804E+06
    148      1      2     48      0.3379          0.6804E+06
    149      1      2     49      0.3359          0.6804E+06
    150      1      2     50      0.3320          0.6804E+06
    151      1      2     51      0.3275          0.6804E+06
    152      1      2     52      0.3212          0.6804E+06
    153      1      2     53      0.3148          0.6804E+06
    154      1      2     54      0.3071          0.6804E+06
    155      1      2     55      0.2993          0.6804E+06
    156      1      2     56      0.2923          0.6804E+06
    157      1      2     57      0.2846          0.6804E+06
    158      1      2     58      0.2772          0.6804E+06
    159      1      2     59      0.2704          0.6804E+06
    160      1      2     60      0.2623          0.6804E+06
    161      1      2     61      0.2555          0.6804E+06
    162      1      2     62      0.2482          0.6804E+06
    163      1      2     63      0.2412          0.6804E+06
    164      1      2     64      0.2355          0.6804E+06
    165      1      2     65      0.2296          0.6804E+06
    166      1      2     66      0.2239          0.6804E+06
    167      1      2     67      0.2193          0.6804E+06
    168      1      2     68      0.2143          0.6804E+06
    169      1      2     69      0.2102          0.6804E+06
    170      1      2     70      0.2056          0.6804E+06
    171      1      2     71      0.2012          0.6804E+06
    172      1      2     72      0.1974          0.6804E+06
    173      1      2     73      0.1926          0.6804E+06
    174      1      2     74      0.1874          0.6804E+06
    175      1      2     75      0.1824          0.6804E+06
    176      1      2     76      0.1762          0.6804E+06
    177      1      2     77      0.1705          0.6804E+06
    178      1      2     78      0.1635          0.6804E+06
    179      1      2     79      0.1561          0.6804E+06
    180      1      2     80      0.1499          0.6804E+06
    181      1      2     81      0.1434          0.6804E+06
    182      1      2     82      0.1360          0.6804E+06
    183      1      2     83      0.1293          0.6804E+06
    184      1      2     84      0.1214          0.6804E+06
    185      1      2     85      0.1141          0.6804E+06
    186      1      2     86      0.1061          0.6804E+06
    187      1      2     87      0.9897E-01      0.6804E+06
    188      1      2     88      0.9295E-01      0.6804E+06
    189      1      2     89      0.8604E-01      0.6804E+06
    190      1      2     90      0.7935E-01      0.6804E+06
    191      1      2     91      0.7276E-01      0.6804E+06
    192      1      2     92      0.6489E-01      0.6804E+06
    193      1      2     93      0.5824E-01      0.6804E+06
    194      1      2     94      0.5107E-01      0.6804E+06
    195      1      2     95      0.4232E-01      0.6804E+06
    196      1      2     96      0.3331E-01      0.6804E+06
    197      1      2     97      0.2064E-01      0.6804E+06
    198      1      2     98      0.8544E-02      0.6804E+06
    199      1      2     99       0.000          0.6804E+06
    200      1      2    100     -0.5911E-01      0.6804E+06
    201      1      3      1      0.4115          0.6804E+06
    202      1      3      2      0.4113          0.6804E+06
    203      1      3      3      0.4120          0.6804E+06
    204      1      3      4      0.4138          0.6804E+06
    205      1      3      5      0.4163          0.6804E+06
    206      1      3      6      0.4181          0.6804E+06
    207      1      3      7      0.4195          0.6804E+06
    208      1      3      8      0.4196          0.6804E+06
    209      1      3      9      0.4177          0.6804E+06
    210      1      3     10      0.4133          0.6804E+06
    211      1      3     11      0.4082          0.6804E+06
    212      1      3     12      0.4012          0.6804E+06
    213      1      3     13      0.3932          0.6804E+06
    214      1      3     14      0.3854          0.6804E+06
    215      1      3     15      0.3752          0.6804E+06
    216      1      3     16      0.3652          0.6804E+06
    217      1      3     17      0.3530          0.6804E+06
    218      1      3     18      0.3404          0.6804E+06
    219      1      3     19      0.3296          0.6804E+06
    220      1      3     20      0.3182          0.6804E+06
    221      1      3     21      0.3077          0.6804E+06
    222      1      3     22      0.2987          0.6804E+06
    223      1      3     23      0.2890          0.6804E+06
    224      1      3     24      0.2810          0.6804E+06
    225      1      3     25      0.2728          0.6804E+06
    226      1      3     26      0.2669          0.6804E+06
    227      1      3     27      0.2660          0.6804E+06
    228      1      3     28      0.2689          0.6804E+06
    229      1      3     29      0.2754          0.6804E+06
    230      1      3     30      0.2834          0.6804E+06
    231      1      3     31      0.2948          0.6804E+06
    232      1      3     32      0.3052          0.6804E+06
    233      1      3     33      0.3141          0.6804E+06
    234      1      3     34      0.3172          0.6804E+06
    235      1      3     35      0.3143          0.6804E+06
    236      1      3     36      0.3098          0.6804E+06
    237      1      3     37      0.3063          0.6804E+06
    238      1      3     38      0.3061          0.6804E+06
    239      1      3     39      0.3091          0.6804E+06
    240      1      3     40      0.3112          0.6804E+06
    241      1      3     41      0.3127          0.6804E+06
    242      1      3     42      0.3144          0.6804E+06
    243      1      3     43      0.3167          0.6804E+06
    244      1      3     44      0.3204          0.6804E+06
    245      1      3     45      0.3245          0.6804E+06
    246      1      3     46      0.3277          0.6804E+06
    247      1      3     47      0.3305          0.6804E+06
    248      1      3     48      0.3315          0.6804E+06
    249      1      3     49      0.3295          0.6804E+06
    250      1      3     50      0.3247          0.6804E+06
    251      1      3     51      0.3192          0.6804E+06
    252      1      3     52      0.3122          0.6804E+06
    253      1      3     53      0.3055          0.6804E+06
    254      1      3     54      0.2977          0.6804E+06
    255      1      3     55      0.2900          0.6804E+06
    256      1      3     56      0.2831          0.6804E+06
    257      1      3     57      0.2759          0.6804E+06
    258      1      3     58      0.2683          0.6804E+06
    259      1      3     59      0.2612          0.6804E+06
    260      1      3     60      0.2535          0.6804E+06
    261      1      3     61      0.2472          0.6804E+06
    262      1      3     62      0.2403          0.6804E+06
    263      1      3     63      0.2336          0.6804E+06
    264      1      3     64      0.2280          0.6804E+06
    265      1      3     65      0.2220          0.6804E+06
    266      1      3     66      0.2162          0.6804E+06
    267      1      3     67      0.2112          0.6804E+06
    268      1      3     68      0.2060          0.6804E+06
    269      1      3     69      0.2019          0.6804E+06
    270      1      3     70      0.1975          0.6804E+06
    271      1      3     71      0.1934          0.6804E+06
    272      1      3     72      0.1897          0.6804E+06
    273      1      3     73      0.1853          0.6804E+06
    274      1      3     74      0.1810          0.6804E+06
    275      1      3     75      0.1767          0.6804E+06
    276      1      3     76      0.1706          0.6804E+06
    277      1      3     77      0.1643          0.6804E+06
    278      1      3     78      0.1565          0.6804E+06
    279      1      3     79      0.1488          0.6804E+06
    280      1      3     80      0.1425          0.6804E+06
    281      1      3     81      0.1357          0.6804E+06
    282      1      3     82      0.1279          0.6804E+06
    283      1      3     83      0.1208          0.6804E+06
    284      1      3     84      0.1125          0.6804E+06
    285      1      3     85      0.1051          0.6804E+06
    286      1      3     86      0.9746E-01      0.6804E+06
    287      1      3     87      0.9132E-01      0.6804E+06
    288      1      3     88      0.8641E-01      0.6804E+06
    289      1      3     89      0.8056E-01      0.6804E+06
    290      1      3     90      0.7421E-01      0.6804E+06
    291      1      3     91      0.6800E-01      0.6804E+06
    292      1      3     92      0.6032E-01      0.6804E+06
    293      1      3     93      0.5337E-01      0.6804E+06
    294      1      3     94      0.4518E-01      0.6804E+06
    295      1      3     95      0.3411E-01      0.6804E+06
    296      1      3     96      0.2197E-01      0.6804E+06
    297      1      3     97      0.8253E-02      0.6804E+06
    298      1      3     98       0.000          0.6804E+06
    299      1      3     99     -0.5216E-01      0.6804E+06
    300      1      3    100     -0.8953E-01      0.6804E+06
    301      1      4      1      0.4282          0.6804E+06
    302      1      4      2      0.4272          0.6804E+06
    303      1      4      3      0.4272          0.6804E+06
    304      1      4      4      0.4282          0.6804E+06
    305      1      4      5      0.4300          0.6804E+06
    306      1      4      6      0.4313          0.6804E+06
    307      1      4      7      0.4321          0.6804E+06
    308      1      4      8      0.4313          0.6804E+06
    309      1      4      9      0.4281          0.6804E+06
    310      1      4     10      0.4220          0.6804E+06
    311      1      4     11      0.4155          0.6804E+06
    312      1      4     12      0.4071          0.6804E+06
    313      1      4     13      0.3978          0.6804E+06
    314      1      4     14      0.3892          0.6804E+06
    315      1      4     15      0.3790          0.6804E+06
    316      1      4     16      0.3698          0.6804E+06
    317      1      4     17      0.3590          0.6804E+06
    318      1      4     18      0.3485          0.6804E+06
    319      1      4     19      0.3396          0.6804E+06
    320      1      4     20      0.3291          0.6804E+06
    321      1      4     21      0.3177          0.6804E+06
    322      1      4     22      0.3063          0.6804E+06
    323      1      4     23      0.2937          0.6804E+06
    324      1      4     24      0.2832          0.6804E+06
    325      1      4     25      0.2722          0.6804E+06
    326      1      4     26      0.2635          0.6804E+06
    327      1      4     27      0.2601          0.6804E+06
    328      1      4     28      0.2609          0.6804E+06
    329      1      4     29      0.2663          0.6804E+06
    330      1      4     30      0.2744          0.6804E+06
    331      1      4     31      0.2869          0.6804E+06
    332      1      4     32      0.2993          0.6804E+06
    333      1      4     33      0.3096          0.6804E+06
    334      1      4     34      0.3110          0.6804E+06
    335      1      4     35      0.3032          0.6804E+06
    336      1      4     36      0.2932          0.6804E+06
    337      1      4     37      0.2859          0.6804E+06
    338      1      4     38      0.2843          0.6804E+06
    339      1      4     39      0.2885          0.6804E+06
    340      1      4     40      0.2922          0.6804E+06
    341      1      4     41      0.2958          0.6804E+06
    342      1      4     42      0.2994          0.6804E+06
    343      1      4     43      0.3028          0.6804E+06
    344      1      4     44      0.3075          0.6804E+06
    345      1      4     45      0.3127          0.6804E+06
    346      1      4     46      0.3173          0.6804E+06
    347      1      4     47      0.3220          0.6804E+06
    348      1      4     48      0.3246          0.6804E+06
    349      1      4     49      0.3225          0.6804E+06
    350      1      4     50      0.3165          0.6804E+06
    351      1      4     51      0.3102          0.6804E+06
    352      1      4     52      0.3029          0.6804E+06
    353      1      4     53      0.2960          0.6804E+06
    354      1      4     54      0.2882          0.6804E+06
    355      1      4     55      0.2807          0.6804E+06
    356      1      4     56      0.2739          0.6804E+06
    357      1      4     57      0.2670          0.6804E+06
    358      1      4     58      0.2597          0.6804E+06
    359      1      4     59      0.2527          0.6804E+06
    360      1      4     60      0.2454          0.6804E+06
    361      1      4     61      0.2396          0.6804E+06
    362      1      4     62      0.2330          0.6804E+06
    363      1      4     63      0.2264          0.6804E+06
    364      1      4     64      0.2209          0.6804E+06
    365      1      4     65      0.2149          0.6804E+06
    366      1      4     66      0.2088          0.6804E+06
    367      1      4     67      0.2037          0.6804E+06
    368      1      4     68      0.1984          0.6804E+06
    369      1      4     69      0.1942          0.6804E+06
    370      1      4     70      0.1899          0.6804E+06
    371      1      4     71      0.1859          0.6804E+06
    372      1      4     72      0.1821          0.6804E+06
    373      1      4     73      0.1782          0.6804E+06
    374      1      4     74      0.1748          0.6804E+06
    375      1      4     75      0.1712          0.6804E+06
    376      1      4     76      0.1655          0.6804E+06
    377      1      4     77      0.1584          0.6804E+06
    378      1      4     78      0.1499          0.6804E+06
    379      1      4     79      0.1419          0.6804E+06
    380      1      4     80      0.1356          0.6804E+06
    381      1      4     81      0.1282          0.6804E+06
    382      1      4     82      0.1203          0.6804E+06
    383      1      4     83      0.1132          0.6804E+06
    384      1      4     84      0.1050          0.6804E+06
    385      1      4     85      0.9767E-01      0.6804E+06
    386      1      4     86      0.9029E-01      0.6804E+06
    387      1      4     87      0.8503E-01      0.6804E+06
    388      1      4     88      0.8086E-01      0.6804E+06
    389      1      4     89      0.7507E-01      0.6804E+06
    390      1      4     90      0.6880E-01      0.6804E+06
    391      1      4     91      0.6320E-01      0.6804E+06
    392      1      4     92      0.5551E-01      0.6804E+06
    393      1      4     93      0.4725E-01      0.6804E+06
    394      1      4     94      0.3691E-01      0.6804E+06
    395      1      4     95      0.2342E-01      0.6804E+06
    396      1      4     96      0.1036E-01      0.6804E+06
    397      1      4     97       0.000          0.6804E+06
    398      1      4     98     -0.4253E-01      0.6804E+06
    399      1      4     99     -0.8103E-01      0.6804E+06
    400      1      4    100     -0.1109          0.6804E+06
    401      1      5      1      0.4453          0.6804E+06
    402      1      5      2      0.4436          0.6804E+06
    403      1      5      3      0.4430          0.6804E+06
    404      1      5      4      0.4434          0.6804E+06
    405      1      5      5      0.4446          0.6804E+06
    406      1      5      6      0.4452          0.6804E+06
    407      1      5      7      0.4452          0.6804E+06
    408      1      5      8      0.4432          0.6804E+06
    409      1      5      9      0.4387          0.6804E+06
    410      1      5     10      0.4308          0.6804E+06
    411      1      5     11      0.4229          0.6804E+06
    412      1      5     12      0.4129          0.6804E+06
    413      1      5     13      0.4023          0.6804E+06
    414      1      5     14      0.3928          0.6804E+06
    415      1      5     15      0.3826          0.6804E+06
    416      1      5     16      0.3740          0.6804E+06
    417      1      5     17      0.3645          0.6804E+06
    418      1      5     18      0.3556          0.6804E+06
    419      1      5     19      0.3482          0.6804E+06
    420      1      5     20      0.3386          0.6804E+06
    421      1      5     21      0.3264          0.6804E+06
    422      1      5     22      0.3132          0.6804E+06
    423      1      5     23      0.2982          0.6804E+06
    424      1      5     24      0.2856          0.6804E+06
    425      1      5     25      0.2722          0.6804E+06
    426      1      5     26      0.2606          0.6804E+06
    427      1      5     27      0.2535          0.6804E+06
    428      1      5     28      0.2501          0.6804E+06
    429      1      5     29      0.2527          0.6804E+06
    430      1      5     30      0.2603          0.6804E+06
    431      1      5     31      0.2733          0.6804E+06
    432      1      5     32      0.2867          0.6804E+06
    433      1      5     33      0.2980          0.6804E+06
    434      1      5     34      0.2977          0.6804E+06
    435      1      5     35      0.2846          0.6804E+06
    436      1      5     36      0.2692          0.6804E+06
    437      1      5     37      0.2578          0.6804E+06
    438      1      5     38      0.2544          0.6804E+06
    439      1      5     39      0.2603          0.6804E+06
    440      1      5     40      0.2662          0.6804E+06
    441      1      5     41      0.2728          0.6804E+06
    442      1      5     42      0.2792          0.6804E+06
    443      1      5     43      0.2844          0.6804E+06
    444      1      5     44      0.2903          0.6804E+06
    445      1      5     45      0.2966          0.6804E+06
    446      1      5     46      0.3023          0.6804E+06
    447      1      5     47      0.3086          0.6804E+06
    448      1      5     48      0.3128          0.6804E+06
    449      1      5     49      0.3109          0.6804E+06
    450      1      5     50      0.3040          0.6804E+06
    451      1      5     51      0.2975          0.6804E+06
    452      1      5     52      0.2902          0.6804E+06
    453      1      5     53      0.2835          0.6804E+06
    454      1      5     54      0.2760          0.6804E+06
    455      1      5     55      0.2686          0.6804E+06
    456      1      5     56      0.2622          0.6804E+06
    457      1      5     57      0.2559          0.6804E+06
    458      1      5     58      0.2489          0.6804E+06
    459      1      5     59      0.2421          0.6804E+06
    460      1      5     60      0.2355          0.6804E+06
    461      1      5     61      0.2301          0.6804E+06
    462      1      5     62      0.2240          0.6804E+06
    463      1      5     63      0.2177          0.6804E+06
    464      1      5     64      0.2123          0.6804E+06
    465      1      5     65      0.2062          0.6804E+06
    466      1      5     66      0.1997          0.6804E+06
    467      1      5     67      0.1943          0.6804E+06
    468      1      5     68      0.1890          0.6804E+06
    469      1      5     69      0.1849          0.6804E+06
    470      1      5     70      0.1802          0.6804E+06
    471      1      5     71      0.1760          0.6804E+06
    472      1      5     72      0.1725          0.6804E+06
    473      1      5     73      0.1692          0.6804E+06
    474      1      5     74      0.1664          0.6804E+06
    475      1      5     75      0.1635          0.6804E+06
    476      1      5     76      0.1581          0.6804E+06
    477      1      5     77      0.1502          0.6804E+06
    478      1      5     78      0.1412          0.6804E+06
    479      1      5     79      0.1330          0.6804E+06
    480      1      5     80      0.1265          0.6804E+06
    481      1      5     81      0.1188          0.6804E+06
    482      1      5     82      0.1113          0.6804E+06
    483      1      5     83      0.1048          0.6804E+06
    484      1      5     84      0.9716E-01      0.6804E+06
    485      1      5     85      0.9037E-01      0.6804E+06
    486      1      5     86      0.8347E-01      0.6804E+06
    487      1      5     87      0.7887E-01      0.6804E+06
    488      1      5     88      0.7524E-01      0.6804E+06
    489      1      5     89      0.6925E-01      0.6804E+06
    490      1      5     90      0.6233E-01      0.6804E+06
    491      1      5     91      0.5570E-01      0.6804E+06
    492      1      5     92      0.4648E-01      0.6804E+06
    493      1      5     93      0.3665E-01      0.6804E+06
    494      1      5     94      0.2376E-01      0.6804E+06
    495      1      5     95      0.8694E-02      0.6804E+06
    496      1      5     96       0.000          0.6804E+06
    497      1      5     97     -0.4517E-01      0.6804E+06
    498      1      5     98     -0.7794E-01      0.6804E+06
    499      1      5     99     -0.1048          0.6804E+06
    500      1      5    100     -0.1273          0.6804E+06
    501      1      6      1      0.4592          0.6804E+06
    502      1      6      2      0.4575          0.6804E+06
    503      1      6      3      0.4568          0.6804E+06
    504      1      6      4      0.4569          0.6804E+06
    505      1      6      5      0.4576          0.6804E+06
    506      1      6      6      0.4576          0.6804E+06
    507      1      6      7      0.4564          0.6804E+06
    508      1      6      8      0.4529          0.6804E+06
    509      1      6      9      0.4471          0.6804E+06
    510      1      6     10      0.4379          0.6804E+06
    511      1      6     11      0.4288          0.6804E+06
    512      1      6     12      0.4175          0.6804E+06
    513      1      6     13      0.4057          0.6804E+06
    514      1      6     14      0.3954          0.6804E+06
    515      1      6     15      0.3848          0.6804E+06
    516      1      6     16      0.3764          0.6804E+06
    517      1      6     17      0.3675          0.6804E+06
    518      1      6     18      0.3596          0.6804E+06
    519      1      6     19      0.3529          0.6804E+06
    520      1      6     20      0.3437          0.6804E+06
    521      1      6     21      0.3313          0.6804E+06
    522      1      6     22      0.3174          0.6804E+06
    523      1      6     23      0.3012          0.6804E+06
    524      1      6     24      0.2873          0.6804E+06
    525      1      6     25      0.2721          0.6804E+06
    526      1      6     26      0.2579          0.6804E+06
    527      1      6     27      0.2468          0.6804E+06
    528      1      6     28      0.2375          0.6804E+06
    529      1      6     29      0.2358          0.6804E+06
    530      1      6     30      0.2433          0.6804E+06
    531      1      6     31      0.2552          0.6804E+06
    532      1      6     32      0.2661          0.6804E+06
    533      1      6     33      0.2736          0.6804E+06
    534      1      6     34      0.2703          0.6804E+06
    535      1      6     35      0.2579          0.6804E+06
    536      1      6     36      0.2425          0.6804E+06
    537      1      6     37      0.2308          0.6804E+06
    538      1      6     38      0.2276          0.6804E+06
    539      1      6     39      0.2336          0.6804E+06
    540      1      6     40      0.2408          0.6804E+06
    541      1      6     41      0.2494          0.6804E+06
    542      1      6     42      0.2578          0.6804E+06
    543      1      6     43      0.2642          0.6804E+06
    544      1      6     44      0.2710          0.6804E+06
    545      1      6     45      0.2777          0.6804E+06
    546      1      6     46      0.2835          0.6804E+06
    547      1      6     47      0.2896          0.6804E+06
    548      1      6     48      0.2936          0.6804E+06
    549      1      6     49      0.2927          0.6804E+06
    550      1      6     50      0.2871          0.6804E+06
    551      1      6     51      0.2816          0.6804E+06
    552      1      6     52      0.2751          0.6804E+06
    553      1      6     53      0.2692          0.6804E+06
    554      1      6     54      0.2623          0.6804E+06
    555      1      6     55      0.2554          0.6804E+06
    556      1      6     56      0.2499          0.6804E+06
    557      1      6     57      0.2436          0.6804E+06
    558      1      6     58      0.2368          0.6804E+06
    559      1      6     59      0.2306          0.6804E+06
    560      1      6     60      0.2248          0.6804E+06
    561      1      6     61      0.2198          0.6804E+06
    562      1      6     62      0.2142          0.6804E+06
    563      1      6     63      0.2083          0.6804E+06
    564      1      6     64      0.2030          0.6804E+06
    565      1      6     65      0.1966          0.6804E+06
    566      1      6     66      0.1899          0.6804E+06
    567      1      6     67      0.1844          0.6804E+06
    568      1      6     68      0.1791          0.6804E+06
    569      1      6     69      0.1746          0.6804E+06
    570      1      6     70      0.1696          0.6804E+06
    571      1      6     71      0.1653          0.6804E+06
    572      1      6     72      0.1621          0.6804E+06
    573      1      6     73      0.1586          0.6804E+06
    574      1      6     74      0.1553          0.6804E+06
    575      1      6     75      0.1518          0.6804E+06
    576      1      6     76      0.1462          0.6804E+06
    577      1      6     77      0.1390          0.6804E+06
    578      1      6     78      0.1307          0.6804E+06
    579      1      6     79      0.1224          0.6804E+06
    580      1      6     80      0.1156          0.6804E+06
    581      1      6     81      0.1086          0.6804E+06
    582      1      6     82      0.1021          0.6804E+06
    583      1      6     83      0.9642E-01      0.6804E+06
    584      1      6     84      0.8988E-01      0.6804E+06
    585      1      6     85      0.8392E-01      0.6804E+06
    586      1      6     86      0.7780E-01      0.6804E+06
    587      1      6     87      0.7317E-01      0.6804E+06
    588      1      6     88      0.6907E-01      0.6804E+06
    589      1      6     89      0.6223E-01      0.6804E+06
    590      1      6     90      0.5410E-01      0.6804E+06
    591      1      6     91      0.4560E-01      0.6804E+06
    592      1      6     92      0.3384E-01      0.6804E+06
    593      1      6     93      0.2190E-01      0.6804E+06
    594      1      6     94      0.7307E-02      0.6804E+06
    595      1      6     95       0.000          0.6804E+06
    596      1      6     96     -0.4403E-01      0.6804E+06
    597      1      6     97     -0.7934E-01      0.6804E+06
    598      1      6     98     -0.1005          0.6804E+06
    599      1      6     99     -0.1220          0.6804E+06
    600      1      6    100     -0.1407          0.6804E+06
    601      1      7      1      0.4692          0.6804E+06
    602      1      7      2      0.4678          0.6804E+06
    603      1      7      3      0.4673          0.6804E+06
    604      1      7      4      0.4673          0.6804E+06
    605      1      7      5      0.4678          0.6804E+06
    606      1      7      6      0.4675          0.6804E+06
    607      1      7      7      0.4654          0.6804E+06
    608      1      7      8      0.4607          0.6804E+06
    609      1      7      9      0.4535          0.6804E+06
    610      1      7     10      0.4428          0.6804E+06
    611      1      7     11      0.4324          0.6804E+06
    612      1      7     12      0.4200          0.6804E+06
    613      1      7     13      0.4075          0.6804E+06
    614      1      7     14      0.3967          0.6804E+06
    615      1      7     15      0.3853          0.6804E+06
    616      1      7     16      0.3763          0.6804E+06
    617      1      7     17      0.3674          0.6804E+06
    618      1      7     18      0.3599          0.6804E+06
    619      1      7     19      0.3536          0.6804E+06
    620      1      7     20      0.3446          0.6804E+06
    621      1      7     21      0.3322          0.6804E+06
    622      1      7     22      0.3185          0.6804E+06
    623      1      7     23      0.3020          0.6804E+06
    624      1      7     24      0.2876          0.6804E+06
    625      1      7     25      0.2716          0.6804E+06
    626      1      7     26      0.2556          0.6804E+06
    627      1      7     27      0.2417          0.6804E+06
    628      1      7     28      0.2279          0.6804E+06
    629      1      7     29      0.2224          0.6804E+06
    630      1      7     30      0.2290          0.6804E+06
    631      1      7     31      0.2387          0.6804E+06
    632      1      7     32      0.2458          0.6804E+06
    633      1      7     33      0.2490          0.6804E+06
    634      1      7     34      0.2435          0.6804E+06
    635      1      7     35      0.2324          0.6804E+06
    636      1      7     36      0.2182          0.6804E+06
    637      1      7     37      0.2076          0.6804E+06
    638      1      7     38      0.2055          0.6804E+06
    639      1      7     39      0.2120          0.6804E+06
    640      1      7     40      0.2202          0.6804E+06
    641      1      7     41      0.2302          0.6804E+06
    642      1      7     42      0.2396          0.6804E+06
    643      1      7     43      0.2465          0.6804E+06
    644      1      7     44      0.2532          0.6804E+06
    645      1      7     45      0.2596          0.6804E+06
    646      1      7     46      0.2646          0.6804E+06
    647      1      7     47      0.2694          0.6804E+06
    648      1      7     48      0.2724          0.6804E+06
    649      1      7     49      0.2725          0.6804E+06
    650      1      7     50      0.2693          0.6804E+06
    651      1      7     51      0.2655          0.6804E+06
    652      1      7     52      0.2603          0.6804E+06
    653      1      7     53      0.2552          0.6804E+06
    654      1      7     54      0.2492          0.6804E+06
    655      1      7     55      0.2433          0.6804E+06
    656      1      7     56      0.2387          0.6804E+06
    657      1      7     57      0.2320          0.6804E+06
    658      1      7     58      0.2252          0.6804E+06
    659      1      7     59      0.2201          0.6804E+06
    660      1      7     60      0.2147          0.6804E+06
    661      1      7     61      0.2102          0.6804E+06
    662      1      7     62      0.2050          0.6804E+06
    663      1      7     63      0.1995          0.6804E+06
    664      1      7     64      0.1944          0.6804E+06
    665      1      7     65      0.1876          0.6804E+06
    666      1      7     66      0.1807          0.6804E+06
    667      1      7     67      0.1752          0.6804E+06
    668      1      7     68      0.1696          0.6804E+06
    669      1      7     69      0.1648          0.6804E+06
    670      1      7     70      0.1599          0.6804E+06
    671      1      7     71      0.1556          0.6804E+06
    672      1      7     72      0.1519          0.6804E+06
    673      1      7     73      0.1477          0.6804E+06
    674      1      7     74      0.1436          0.6804E+06
    675      1      7     75      0.1396          0.6804E+06
    676      1      7     76      0.1340          0.6804E+06
    677      1      7     77      0.1278          0.6804E+06
    678      1      7     78      0.1201          0.6804E+06
    679      1      7     79      0.1119          0.6804E+06
    680      1      7     80      0.1052          0.6804E+06
    681      1      7     81      0.9924E-01      0.6804E+06
    682      1      7     82      0.9380E-01      0.6804E+06
    683      1      7     83      0.8900E-01      0.6804E+06
    684      1      7     84      0.8319E-01      0.6804E+06
    685      1      7     85      0.7770E-01      0.6804E+06
    686      1      7     86      0.7259E-01      0.6804E+06
    687      1      7     87      0.6745E-01      0.6804E+06
    688      1      7     88      0.6189E-01      0.6804E+06
    689      1      7     89      0.5383E-01      0.6804E+06
    690      1      7     90      0.4454E-01      0.6804E+06
    691      1      7     91      0.3432E-01      0.6804E+06
    692      1      7     92      0.1993E-01      0.6804E+06
    693      1      7     93      0.6895E-02      0.6804E+06
    694      1      7     94       0.000          0.6804E+06
    695      1      7     95       0.000          0.6804E+06
    696      1      7     96     -0.7501E-01      0.6804E+06
    697      1      7     97     -0.9975E-01      0.6804E+06
    698      1      7     98     -0.1192          0.6804E+06
    699      1      7     99     -0.1401          0.6804E+06
    700      1      7    100     -0.1727          0.6804E+06
    701      1      8      1      0.4782          0.6804E+06
    702      1      8      2      0.4776          0.6804E+06
    703      1      8      3      0.4773          0.6804E+06
    704      1      8      4      0.4775          0.6804E+06
    705      1      8      5      0.4779          0.6804E+06
    706      1      8      6      0.4775          0.6804E+06
    707      1      8      7      0.4750          0.6804E+06
    708      1      8      8      0.4691          0.6804E+06
    709      1      8      9      0.4599          0.6804E+06
    710      1      8     10      0.4463          0.6804E+06
    711      1      8     11      0.4339          0.6804E+06
    712      1      8     12      0.4201          0.6804E+06
    713      1      8     13      0.4072          0.6804E+06
    714      1      8     14      0.3957          0.6804E+06
    715      1      8     15      0.3828          0.6804E+06
    716      1      8     16      0.3726          0.6804E+06
    717      1      8     17      0.3634          0.6804E+06
    718      1      8     18      0.3565          0.6804E+06
    719      1      8     19      0.3515          0.6804E+06
    720      1      8     20      0.3437          0.6804E+06
    721      1      8     21      0.3314          0.6804E+06
    722      1      8     22      0.3171          0.6804E+06
    723      1      8     23      0.3002          0.6804E+06
    724      1      8     24      0.2859          0.6804E+06
    725      1      8     25      0.2702          0.6804E+06
    726      1      8     26      0.2537          0.6804E+06
    727      1      8     27      0.2385          0.6804E+06
    728      1      8     28      0.2238          0.6804E+06
    729      1      8     29      0.2161          0.6804E+06
    730      1      8     30      0.2177          0.6804E+06
    731      1      8     31      0.2223          0.6804E+06
    732      1      8     32      0.2251          0.6804E+06
    733      1      8     33      0.2242          0.6804E+06
    734      1      8     34      0.2165          0.6804E+06
    735      1      8     35      0.2050          0.6804E+06
    736      1      8     36      0.1907          0.6804E+06
    737      1      8     37      0.1806          0.6804E+06
    738      1      8     38      0.1804          0.6804E+06
    739      1      8     39      0.1894          0.6804E+06
    740      1      8     40      0.1993          0.6804E+06
    741      1      8     41      0.2107          0.6804E+06
    742      1      8     42      0.2206          0.6804E+06
    743      1      8     43      0.2273          0.6804E+06
    744      1      8     44      0.2332          0.6804E+06
    745      1      8     45      0.2384          0.6804E+06
    746      1      8     46      0.2423          0.6804E+06
    747      1      8     47      0.2454          0.6804E+06
    748      1      8     48      0.2477          0.6804E+06
    749      1      8     49      0.2489          0.6804E+06
    750      1      8     50      0.2478          0.6804E+06
    751      1      8     51      0.2458          0.6804E+06
    752      1      8     52      0.2425          0.6804E+06
    753      1      8     53      0.2386          0.6804E+06
    754      1      8     54      0.2335          0.6804E+06
    755      1      8     55      0.2283          0.6804E+06
    756      1      8     56      0.2247          0.6804E+06
    757      1      8     57      0.2183          0.6804E+06
    758      1      8     58      0.2117          0.6804E+06
    759      1      8     59      0.2076          0.6804E+06
    760      1      8     60      0.2026          0.6804E+06
    761      1      8     61      0.1985          0.6804E+06
    762      1      8     62      0.1937          0.6804E+06
    763      1      8     63      0.1886          0.6804E+06
    764      1      8     64      0.1836          0.6804E+06
    765      1      8     65      0.1765          0.6804E+06
    766      1      8     66      0.1693          0.6804E+06
    767      1      8     67      0.1637          0.6804E+06
    768      1      8     68      0.1579          0.6804E+06
    769      1      8     69      0.1530          0.6804E+06
    770      1      8     70      0.1482          0.6804E+06
    771      1      8     71      0.1438          0.6804E+06
    772      1      8     72      0.1393          0.6804E+06
    773      1      8     73      0.1341          0.6804E+06
    774      1      8     74      0.1293          0.6804E+06
    775      1      8     75      0.1250          0.6804E+06
    776      1      8     76      0.1197          0.6804E+06
    777      1      8     77      0.1147          0.6804E+06
    778      1      8     78      0.1079          0.6804E+06
    779      1      8     79      0.1000          0.6804E+06
    780      1      8     80      0.9346E-01      0.6804E+06
    781      1      8     81      0.8885E-01      0.6804E+06
    782      1      8     82      0.8443E-01      0.6804E+06
    783      1      8     83      0.8025E-01      0.6804E+06
    784      1      8     84      0.7495E-01      0.6804E+06
    785      1      8     85      0.6975E-01      0.6804E+06
    786      1      8     86      0.6418E-01      0.6804E+06
    787      1      8     87      0.5803E-01      0.6804E+06
    788      1      8     88      0.5140E-01      0.6804E+06
    789      1      8     89      0.4222E-01      0.6804E+06
    790      1      8     90      0.3136E-01      0.6804E+06
    791      1      8     91      0.1844E-01      0.6804E+06
    792      1      8     92      0.1865E-02      0.6804E+06
    793      1      8     93       0.000          0.6804E+06
    794      1      8     94       0.000          0.6804E+06
    795      1      8     95     -0.8038E-01      0.6804E+06
    796      1      8     96     -0.1007          0.6804E+06
    797      1      8     97     -0.1204          0.6804E+06
    798      1      8     98     -0.1363          0.6804E+06
    799      1      8     99     -0.1683          0.6804E+06
    800      1      8    100     -0.2581          0.6804E+06
    801      1      9      1      0.4846          0.6804E+06
    802      1      9      2      0.4845          0.6804E+06
    803      1      9      3      0.4845          0.6804E+06
    804      1      9      4      0.4848          0.6804E+06
    805      1      9      5      0.4851          0.6804E+06
    806      1      9      6      0.4846          0.6804E+06
    807      1      9      7      0.4824          0.6804E+06
    808      1      9      8      0.4759          0.6804E+06
    809      1      9      9      0.4639          0.6804E+06
    810      1      9     10      0.4469          0.6804E+06
    811      1      9     11      0.4321          0.6804E+06
    812      1      9     12      0.4168          0.6804E+06
    813      1      9     13      0.4038          0.6804E+06
    814      1      9     14      0.3913          0.6804E+06
    815      1      9     15      0.3767          0.6804E+06
    816      1      9     16      0.3652          0.6804E+06
    817      1      9     17      0.3556          0.6804E+06
    818      1      9     18      0.3493          0.6804E+06
    819      1      9     19      0.3456          0.6804E+06
    820      1      9     20      0.3394          0.6804E+06
    821      1      9     21      0.3271          0.6804E+06
    822      1      9     22      0.3120          0.6804E+06
    823      1      9     23      0.2950          0.6804E+06
    824      1      9     24      0.2811          0.6804E+06
    825      1      9     25      0.2665          0.6804E+06
    826      1      9     26      0.2508          0.6804E+06
    827      1      9     27      0.2357          0.6804E+06
    828      1      9     28      0.2211          0.6804E+06
    829      1      9     29      0.2124          0.6804E+06
    830      1      9     30      0.2106          0.6804E+06
    831      1      9     31      0.2111          0.6804E+06
    832      1      9     32      0.2110          0.6804E+06
    833      1      9     33      0.2077          0.6804E+06
    834      1      9     34      0.1986          0.6804E+06
    835      1      9     35      0.1858          0.6804E+06
    836      1      9     36      0.1688          0.6804E+06
    837      1      9     37      0.1574          0.6804E+06
    838      1      9     38      0.1597          0.6804E+06
    839      1      9     39      0.1728          0.6804E+06
    840      1      9     40      0.1848          0.6804E+06
    841      1      9     41      0.1968          0.6804E+06
    842      1      9     42      0.2062          0.6804E+06
    843      1      9     43      0.2122          0.6804E+06
    844      1      9     44      0.2168          0.6804E+06
    845      1      9     45      0.2205          0.6804E+06
    846      1      9     46      0.2230          0.6804E+06
    847      1      9     47      0.2249          0.6804E+06
    848      1      9     48      0.2270          0.6804E+06
    849      1      9     49      0.2288          0.6804E+06
    850      1      9     50      0.2291          0.6804E+06
    851      1      9     51      0.2283          0.6804E+06
    852      1      9     52      0.2264          0.6804E+06
    853      1      9     53      0.2234          0.6804E+06
    854      1      9     54      0.2192          0.6804E+06
    855      1      9     55      0.2146          0.6804E+06
    856      1      9     56      0.2109          0.6804E+06
    857      1      9     57      0.2055          0.6804E+06
    858      1      9     58      0.2002          0.6804E+06
    859      1      9     59      0.1961          0.6804E+06
    860      1      9     60      0.1912          0.6804E+06
    861      1      9     61      0.1874          0.6804E+06
    862      1      9     62      0.1830          0.6804E+06
    863      1      9     63      0.1778          0.6804E+06
    864      1      9     64      0.1726          0.6804E+06
    865      1      9     65      0.1657          0.6804E+06
    866      1      9     66      0.1583          0.6804E+06
    867      1      9     67      0.1525          0.6804E+06
    868      1      9     68      0.1473          0.6804E+06
    869      1      9     69      0.1425          0.6804E+06
    870      1      9     70      0.1372          0.6804E+06
    871      1      9     71      0.1322          0.6804E+06
    872      1      9     72      0.1275          0.6804E+06
    873      1      9     73      0.1217          0.6804E+06
    874      1      9     74      0.1164          0.6804E+06
    875      1      9     75      0.1121          0.6804E+06
    876      1      9     76      0.1077          0.6804E+06
    877      1      9     77      0.1036          0.6804E+06
    878      1      9     78      0.9777E-01      0.6804E+06
    879      1      9     79      0.9066E-01      0.6804E+06
    880      1      9     80      0.8461E-01      0.6804E+06
    881      1      9     81      0.8050E-01      0.6804E+06
    882      1      9     82      0.7650E-01      0.6804E+06
    883      1      9     83      0.7250E-01      0.6804E+06
    884      1      9     84      0.6717E-01      0.6804E+06
    885      1      9     85      0.6218E-01      0.6804E+06
    886      1      9     86      0.5563E-01      0.6804E+06
    887      1      9     87      0.4796E-01      0.6804E+06
    888      1      9     88      0.3998E-01      0.6804E+06
    889      1      9     89      0.2944E-01      0.6804E+06
    890      1      9     90      0.1802E-01      0.6804E+06
    891      1      9     91      0.3275E-02      0.6804E+06
    892      1      9     92       0.000          0.6804E+06
    893      1      9     93       0.000          0.6804E+06
    894      1      9     94     -0.7698E-01      0.6804E+06
    895      1      9     95     -0.1038          0.6804E+06
    896      1      9     96     -0.1242          0.6804E+06
    897      1      9     97     -0.1357          0.6804E+06
    898      1      9     98     -0.1550          0.6804E+06
    899      1      9     99     -0.2520          0.6804E+06
    900      1      9    100     -0.2207          0.6804E+06
    901      1     10      1      0.4910          0.6804E+06
    902      1     10      2      0.4909          0.6804E+06
    903      1     10      3      0.4909          0.6804E+06
    904      1     10      4      0.4908          0.6804E+06
    905      1     10      5      0.4905          0.6804E+06
    906      1     10      6      0.4898          0.6804E+06
    907      1     10      7      0.4881          0.6804E+06
    908      1     10      8      0.4815          0.6804E+06
    909      1     10      9      0.4647          0.6804E+06
    910      1     10     10      0.4426          0.6804E+06
    911      1     10     11      0.4242          0.6804E+06
    912      1     10     12      0.4065          0.6804E+06
    913      1     10     13      0.3934          0.6804E+06
    914      1     10     14      0.3794          0.6804E+06
    915      1     10     15      0.3629          0.6804E+06
    916      1     10     16      0.3505          0.6804E+06
    917      1     10     17      0.3411          0.6804E+06
    918      1     10     18      0.3353          0.6804E+06
    919      1     10     19      0.3326          0.6804E+06
    920      1     10     20      0.3275          0.6804E+06
    921      1     10     21      0.3154          0.6804E+06
    922      1     10     22      0.3006          0.6804E+06
    923      1     10     23      0.2842          0.6804E+06
    924      1     10     24      0.2709          0.6804E+06
    925      1     10     25      0.2572          0.6804E+06
    926      1     10     26      0.2427          0.6804E+06
    927      1     10     27      0.2289          0.6804E+06
    928      1     10     28      0.2155          0.6804E+06
    929      1     10     29      0.2067          0.6804E+06
    930      1     10     30      0.2028          0.6804E+06
    931      1     10     31      0.2007          0.6804E+06
    932      1     10     32      0.1990          0.6804E+06
    933      1     10     33      0.1952          0.6804E+06
    934      1     10     34      0.1867          0.6804E+06
    935      1     10     35      0.1746          0.6804E+06
    936      1     10     36      0.1550          0.6804E+06
    937      1     10     37      0.1413          0.6804E+06
    938      1     10     38      0.1471          0.6804E+06
    939      1     10     39      0.1633          0.6804E+06
    940      1     10     40      0.1758          0.6804E+06
    941      1     10     41      0.1863          0.6804E+06
    942      1     10     42      0.1935          0.6804E+06
    943      1     10     43      0.1976          0.6804E+06
    944      1     10     44      0.2002          0.6804E+06
    945      1     10     45      0.2017          0.6804E+06
    946      1     10     46      0.2024          0.6804E+06
    947      1     10     47      0.2028          0.6804E+06
    948      1     10     48      0.2048          0.6804E+06
    949      1     10     49      0.2073          0.6804E+06
    950      1     10     50      0.2087          0.6804E+06
    951      1     10     51      0.2090          0.6804E+06
    952      1     10     52      0.2079          0.6804E+06
    953      1     10     53      0.2058          0.6804E+06
    954      1     10     54      0.2026          0.6804E+06
    955      1     10     55      0.1986          0.6804E+06
    956      1     10     56      0.1948          0.6804E+06
    957      1     10     57      0.1904          0.6804E+06
    958      1     10     58      0.1862          0.6804E+06
    959      1     10     59      0.1821          0.6804E+06
    960      1     10     60      0.1775          0.6804E+06
    961      1     10     61      0.1740          0.6804E+06
    962      1     10     62      0.1699          0.6804E+06
    963      1     10     63      0.1649          0.6804E+06
    964      1     10     64      0.1595          0.6804E+06
    965      1     10     65      0.1526          0.6804E+06
    966      1     10     66      0.1451          0.6804E+06
    967      1     10     67      0.1389          0.6804E+06
    968      1     10     68      0.1335          0.6804E+06
    969      1     10     69      0.1289          0.6804E+06
    970      1     10     70      0.1239          0.6804E+06
    971      1     10     71      0.1190          0.6804E+06
    972      1     10     72      0.1141          0.6804E+06
    973      1     10     73      0.1077          0.6804E+06
    974      1     10     74      0.1018          0.6804E+06
    975      1     10     75      0.9769E-01      0.6804E+06
    976      1     10     76      0.9470E-01      0.6804E+06
    977      1     10     77      0.9187E-01      0.6804E+06
    978      1     10     78      0.8740E-01      0.6804E+06
    979      1     10     79      0.8168E-01      0.6804E+06
    980      1     10     80      0.7663E-01      0.6804E+06
    981      1     10     81      0.7193E-01      0.6804E+06
    982      1     10     82      0.6758E-01      0.6804E+06
    983      1     10     83      0.6340E-01      0.6804E+06
    984      1     10     84      0.5770E-01      0.6804E+06
    985      1     10     85      0.5233E-01      0.6804E+06
    986      1     10     86      0.4414E-01      0.6804E+06
    987      1     10     87      0.3412E-01      0.6804E+06
    988      1     10     88      0.2380E-01      0.6804E+06
    989      1     10     89      0.1137E-01      0.6804E+06
    990      1     10     90       0.000          0.6804E+06
    991      1     10     91       0.000          0.6804E+06
    992      1     10     92       0.000          0.6804E+06
    993      1     10     93     -0.8005E-01      0.6804E+06
    994      1     10     94     -0.1037          0.6804E+06
    995      1     10     95     -0.1303          0.6804E+06
    996      1     10     96     -0.1401          0.6804E+06
    997      1     10     97     -0.1600          0.6804E+06
    998      1     10     98     -0.2419          0.6804E+06
    999      1     10     99     -0.2095          0.6804E+06
   1000      1     10    100     -0.1550          0.6804E+06
   1001      1     11      1      0.4964          0.6804E+06
   1002      1     11      2      0.4960          0.6804E+06
   1003      1     11      3      0.4955          0.6804E+06
   1004      1     11      4      0.4946          0.6804E+06
   1005      1     11      5      0.4931          0.6804E+06
   1006      1     11      6      0.4907          0.6804E+06
   1007      1     11      7      0.4860          0.6804E+06
   1008      1     11      8      0.4755          0.6804E+06
   1009      1     11      9      0.4569          0.6804E+06
   1010      1     11     10      0.4316          0.6804E+06
   1011      1     11     11      0.4092          0.6804E+06
   1012      1     11     12      0.3863          0.6804E+06
   1013      1     11     13      0.3678          0.6804E+06
   1014      1     11     14      0.3528          0.6804E+06
   1015      1     11     15      0.3383          0.6804E+06
   1016      1     11     16      0.3288          0.6804E+06
   1017      1     11     17      0.3209          0.6804E+06
   1018      1     11     18      0.3155          0.6804E+06
   1019      1     11     19      0.3116          0.6804E+06
   1020      1     11     20      0.3054          0.6804E+06
   1021      1     11     21      0.2945          0.6804E+06
   1022      1     11     22      0.2823          0.6804E+06
   1023      1     11     23      0.2679          0.6804E+06
   1024      1     11     24      0.2554          0.6804E+06
   1025      1     11     25      0.2421          0.6804E+06
   1026      1     11     26      0.2289          0.6804E+06
   1027      1     11     27      0.2175          0.6804E+06
   1028      1     11     28      0.2064          0.6804E+06
   1029      1     11     29      0.1986          0.6804E+06
   1030      1     11     30      0.1943          0.6804E+06
   1031      1     11     31      0.1917          0.6804E+06
   1032      1     11     32      0.1902          0.6804E+06
   1033      1     11     33      0.1880          0.6804E+06
   1034      1     11     34      0.1833          0.6804E+06
   1035      1     11     35      0.1763          0.6804E+06
   1036      1     11     36      0.1644          0.6804E+06
   1037      1     11     37      0.1563          0.6804E+06
   1038      1     11     38      0.1601          0.6804E+06
   1039      1     11     39      0.1693          0.6804E+06
   1040      1     11     40      0.1763          0.6804E+06
   1041      1     11     41      0.1815          0.6804E+06
   1042      1     11     42      0.1845          0.6804E+06
   1043      1     11     43      0.1858          0.6804E+06
   1044      1     11     44      0.1860          0.6804E+06
   1045      1     11     45      0.1852          0.6804E+06
   1046      1     11     46      0.1835          0.6804E+06
   1047      1     11     47      0.1819          0.6804E+06
   1048      1     11     48      0.1839          0.6804E+06
   1049      1     11     49      0.1876          0.6804E+06
   1050      1     11     50      0.1900          0.6804E+06
   1051      1     11     51      0.1909          0.6804E+06
   1052      1     11     52      0.1907          0.6804E+06
   1053      1     11     53      0.1891          0.6804E+06
   1054      1     11     54      0.1861          0.6804E+06
   1055      1     11     55      0.1827          0.6804E+06
   1056      1     11     56      0.1796          0.6804E+06
   1057      1     11     57      0.1755          0.6804E+06
   1058      1     11     58      0.1713          0.6804E+06
   1059      1     11     59      0.1677          0.6804E+06
   1060      1     11     60      0.1634          0.6804E+06
   1061      1     11     61      0.1600          0.6804E+06
   1062      1     11     62      0.1560          0.6804E+06
   1063      1     11     63      0.1514          0.6804E+06
   1064      1     11     64      0.1463          0.6804E+06
   1065      1     11     65      0.1389          0.6804E+06
   1066      1     11     66      0.1304          0.6804E+06
   1067      1     11     67      0.1237          0.6804E+06
   1068      1     11     68      0.1186          0.6804E+06
   1069      1     11     69      0.1149          0.6804E+06
   1070      1     11     70      0.1109          0.6804E+06
   1071      1     11     71      0.1065          0.6804E+06
   1072      1     11     72      0.1019          0.6804E+06
   1073      1     11     73      0.9568E-01      0.6804E+06
   1074      1     11     74      0.9004E-01      0.6804E+06
   1075      1     11     75      0.8625E-01      0.6804E+06
   1076      1     11     76      0.8396E-01      0.6804E+06
   1077      1     11     77      0.8147E-01      0.6804E+06
   1078      1     11     78      0.7762E-01      0.6804E+06
   1079      1     11     79      0.7270E-01      0.6804E+06
   1080      1     11     80      0.6809E-01      0.6804E+06
   1081      1     11     81      0.6301E-01      0.6804E+06
   1082      1     11     82      0.5786E-01      0.6804E+06
   1083      1     11     83      0.5327E-01      0.6804E+06
   1084      1     11     84      0.4735E-01      0.6804E+06
   1085      1     11     85      0.3999E-01      0.6804E+06
   1086      1     11     86      0.2950E-01      0.6804E+06
   1087      1     11     87      0.1704E-01      0.6804E+06
   1088      1     11     88      0.5363E-02      0.6804E+06
   1089      1     11     89       0.000          0.6804E+06
   1090      1     11     90       0.000          0.6804E+06
   1091      1     11     91     -0.6310E-01      0.6804E+06
   1092      1     11     92     -0.8652E-01      0.6804E+06
   1093      1     11     93     -0.1029          0.6804E+06
   1094      1     11     94     -0.1237          0.6804E+06
   1095      1     11     95     -0.1383          0.6804E+06
   1096      1     11     96     -0.1603          0.6804E+06
   1097      1     11     97     -0.2289          0.6804E+06
   1098      1     11     98     -0.2050          0.6804E+06
   1099      1     11     99     -0.1569          0.6804E+06
   1100      1     11    100     -0.1391          0.6804E+06
   1101      1     12      1      0.5005          0.6804E+06
   1102      1     12      2      0.4995          0.6804E+06
   1103      1     12      3      0.4984          0.6804E+06
   1104      1     12      4      0.4965          0.6804E+06
   1105      1     12      5      0.4937          0.6804E+06
   1106      1     12      6      0.4895          0.6804E+06
   1107      1     12      7      0.4814          0.6804E+06
   1108      1     12      8      0.4671          0.6804E+06
   1109      1     12      9      0.4475          0.6804E+06
   1110      1     12     10      0.4195          0.6804E+06
   1111      1     12     11      0.3936          0.6804E+06
   1112      1     12     12      0.3655          0.6804E+06
   1113      1     12     13      0.3402          0.6804E+06
   1114      1     12     14      0.3244          0.6804E+06
   1115      1     12     15      0.3130          0.6804E+06
   1116      1     12     16      0.3076          0.6804E+06
   1117      1     12     17      0.3017          0.6804E+06
   1118      1     12     18      0.2963          0.6804E+06
   1119      1     12     19      0.2915          0.6804E+06
   1120      1     12     20      0.2843          0.6804E+06
   1121      1     12     21      0.2741          0.6804E+06
   1122      1     12     22      0.2635          0.6804E+06
   1123      1     12     23      0.2507          0.6804E+06
   1124      1     12     24      0.2391          0.6804E+06
   1125      1     12     25      0.2265          0.6804E+06
   1126      1     12     26      0.2146          0.6804E+06
   1127      1     12     27      0.2049          0.6804E+06
   1128      1     12     28      0.1957          0.6804E+06
   1129      1     12     29      0.1895          0.6804E+06
   1130      1     12     30      0.1857          0.6804E+06
   1131      1     12     31      0.1838          0.6804E+06
   1132      1     12     32      0.1838          0.6804E+06
   1133      1     12     33      0.1843          0.6804E+06
   1134      1     12     34      0.1846          0.6804E+06
   1135      1     12     35      0.1850          0.6804E+06
   1136      1     12     36      0.1852          0.6804E+06
   1137      1     12     37      0.1857          0.6804E+06
   1138      1     12     38      0.1843          0.6804E+06
   1139      1     12     39      0.1823          0.6804E+06
   1140      1     12     40      0.1810          0.6804E+06
   1141      1     12     41      0.1797          0.6804E+06
   1142      1     12     42      0.1785          0.6804E+06
   1143      1     12     43      0.1776          0.6804E+06
   1144      1     12     44      0.1758          0.6804E+06
   1145      1     12     45      0.1730          0.6804E+06
   1146      1     12     46      0.1701          0.6804E+06
   1147      1     12     47      0.1677          0.6804E+06
   1148      1     12     48      0.1694          0.6804E+06
   1149      1     12     49      0.1730          0.6804E+06
   1150      1     12     50      0.1752          0.6804E+06
   1151      1     12     51      0.1764          0.6804E+06
   1152      1     12     52      0.1764          0.6804E+06
   1153      1     12     53      0.1743          0.6804E+06
   1154      1     12     54      0.1706          0.6804E+06
   1155      1     12     55      0.1693          0.6804E+06
   1156      1     12     56      0.1667          0.6804E+06
   1157      1     12     57      0.1628          0.6804E+06
   1158      1     12     58      0.1588          0.6804E+06
   1159      1     12     59      0.1551          0.6804E+06
   1160      1     12     60      0.1509          0.6804E+06
   1161      1     12     61      0.1473          0.6804E+06
   1162      1     12     62      0.1432          0.6804E+06
   1163      1     12     63      0.1389          0.6804E+06
   1164      1     12     64      0.1344          0.6804E+06
   1165      1     12     65      0.1265          0.6804E+06
   1166      1     12     66      0.1167          0.6804E+06
   1167      1     12     67      0.1092          0.6804E+06
   1168      1     12     68      0.1054          0.6804E+06
   1169      1     12     69      0.1031          0.6804E+06
   1170      1     12     70      0.1002          0.6804E+06
   1171      1     12     71      0.9652E-01      0.6804E+06
   1172      1     12     72      0.9234E-01      0.6804E+06
   1173      1     12     73      0.8685E-01      0.6804E+06
   1174      1     12     74      0.8189E-01      0.6804E+06
   1175      1     12     75      0.7844E-01      0.6804E+06
   1176      1     12     76      0.7588E-01      0.6804E+06
   1177      1     12     77      0.7315E-01      0.6804E+06
   1178      1     12     78      0.6915E-01      0.6804E+06
   1179      1     12     79      0.6400E-01      0.6804E+06
   1180      1     12     80      0.5893E-01      0.6804E+06
   1181      1     12     81      0.5325E-01      0.6804E+06
   1182      1     12     82      0.4783E-01      0.6804E+06
   1183      1     12     83      0.4289E-01      0.6804E+06
   1184      1     12     84      0.3546E-01      0.6804E+06
   1185      1     12     85      0.2601E-01      0.6804E+06
   1186      1     12     86      0.1418E-01      0.6804E+06
   1187      1     12     87      0.9250E-03      0.6804E+06
   1188      1     12     88       0.000          0.6804E+06
   1189      1     12     89       0.000          0.6804E+06
   1190      1     12     90     -0.7046E-01      0.6804E+06
   1191      1     12     91     -0.8687E-01      0.6804E+06
   1192      1     12     92     -0.1042          0.6804E+06
   1193      1     12     93     -0.1183          0.6804E+06
   1194      1     12     94     -0.1342          0.6804E+06
   1195      1     12     95     -0.1562          0.6804E+06
   1196      1     12     96     -0.2266          0.6804E+06
   1197      1     12     97     -0.1988          0.6804E+06
   1198      1     12     98     -0.1559          0.6804E+06
   1199      1     12     99     -0.1234          0.6804E+06
   1200      1     12    100     -0.1214          0.6804E+06
   1201      1     13      1      0.5044          0.6804E+06
   1202      1     13      2      0.5024          0.6804E+06
   1203      1     13      3      0.5004          0.6804E+06
   1204      1     13      4      0.4974          0.6804E+06
   1205      1     13      5      0.4931          0.6804E+06
   1206      1     13      6      0.4871          0.6804E+06
   1207      1     13      7      0.4765          0.6804E+06
   1208      1     13      8      0.4596          0.6804E+06
   1209      1     13      9      0.4382          0.6804E+06
   1210      1     13     10      0.4073          0.6804E+06
   1211      1     13     11      0.3781          0.6804E+06
   1212      1     13     12      0.3455          0.6804E+06
   1213      1     13     13      0.3149          0.6804E+06
   1214      1     13     14      0.2984          0.6804E+06
   1215      1     13     15      0.2888          0.6804E+06
   1216      1     13     16      0.2856          0.6804E+06
   1217      1     13     17      0.2810          0.6804E+06
   1218      1     13     18      0.2750          0.6804E+06
   1219      1     13     19      0.2690          0.6804E+06
   1220      1     13     20      0.2607          0.6804E+06
   1221      1     13     21      0.2508          0.6804E+06
   1222      1     13     22      0.2413          0.6804E+06
   1223      1     13     23      0.2297          0.6804E+06
   1224      1     13     24      0.2189          0.6804E+06
   1225      1     13     25      0.2072          0.6804E+06
   1226      1     13     26      0.1967          0.6804E+06
   1227      1     13     27      0.1884          0.6804E+06
   1228      1     13     28      0.1810          0.6804E+06
   1229      1     13     29      0.1766          0.6804E+06
   1230      1     13     30      0.1743          0.6804E+06
   1231      1     13     31      0.1738          0.6804E+06
   1232      1     13     32      0.1755          0.6804E+06
   1233      1     13     33      0.1799          0.6804E+06
   1234      1     13     34      0.1864          0.6804E+06
   1235      1     13     35      0.1954          0.6804E+06
   1236      1     13     36      0.2086          0.6804E+06
   1237      1     13     37      0.2184          0.6804E+06
   1238      1     13     38      0.2114          0.6804E+06
   1239      1     13     39      0.1974          0.6804E+06
   1240      1     13     40      0.1865          0.6804E+06
   1241      1     13     41      0.1780          0.6804E+06
   1242      1     13     42      0.1723          0.6804E+06
   1243      1     13     43      0.1693          0.6804E+06
   1244      1     13     44      0.1655          0.6804E+06
   1245      1     13     45      0.1614          0.6804E+06
   1246      1     13     46      0.1585          0.6804E+06
   1247      1     13     47      0.1564          0.6804E+06
   1248      1     13     48      0.1572          0.6804E+06
   1249      1     13     49      0.1594          0.6804E+06
   1250      1     13     50      0.1607          0.6804E+06
   1251      1     13     51      0.1615          0.6804E+06
   1252      1     13     52      0.1604          0.6804E+06
   1253      1     13     53      0.1583          0.6804E+06
   1254      1     13     54      0.1563          0.6804E+06
   1255      1     13     55      0.1549          0.6804E+06
   1256      1     13     56      0.1521          0.6804E+06
   1257      1     13     57      0.1480          0.6804E+06
   1258      1     13     58      0.1438          0.6804E+06
   1259      1     13     59      0.1399          0.6804E+06
   1260      1     13     60      0.1354          0.6804E+06
   1261      1     13     61      0.1316          0.6804E+06
   1262      1     13     62      0.1272          0.6804E+06
   1263      1     13     63      0.1240          0.6804E+06
   1264      1     13     64      0.1198          0.6804E+06
   1265      1     13     65      0.1122          0.6804E+06
   1266      1     13     66      0.1019          0.6804E+06
   1267      1     13     67      0.9317E-01      0.6804E+06
   1268      1     13     68      0.9147E-01      0.6804E+06
   1269      1     13     69      0.9093E-01      0.6804E+06
   1270      1     13     70      0.8931E-01      0.6804E+06
   1271      1     13     71      0.8636E-01      0.6804E+06
   1272      1     13     72      0.8272E-01      0.6804E+06
   1273      1     13     73      0.7806E-01      0.6804E+06
   1274      1     13     74      0.7389E-01      0.6804E+06
   1275      1     13     75      0.7073E-01      0.6804E+06
   1276      1     13     76      0.6702E-01      0.6804E+06
   1277      1     13     77      0.6354E-01      0.6804E+06
   1278      1     13     78      0.5881E-01      0.6804E+06
   1279      1     13     79      0.5279E-01      0.6804E+06
   1280      1     13     80      0.4697E-01      0.6804E+06
   1281      1     13     81      0.3993E-01      0.6804E+06
   1282      1     13     82      0.3310E-01      0.6804E+06
   1283      1     13     83      0.2724E-01      0.6804E+06
   1284      1     13     84      0.1894E-01      0.6804E+06
   1285      1     13     85      0.7591E-02      0.6804E+06
   1286      1     13     86       0.000          0.6804E+06
   1287      1     13     87       0.000          0.6804E+06
   1288      1     13     88     -0.5507E-01      0.6804E+06
   1289      1     13     89     -0.7767E-01      0.6804E+06
   1290      1     13     90     -0.9604E-01      0.6804E+06
   1291      1     13     91     -0.1095          0.6804E+06
   1292      1     13     92     -0.1211          0.6804E+06
   1293      1     13     93     -0.1322          0.6804E+06
   1294      1     13     94     -0.1323          0.6804E+06
   1295      1     13     95     -0.1705          0.6804E+06
   1296      1     13     96     -0.2359          0.6804E+06
   1297      1     13     97     -0.1808          0.6804E+06
   1298      1     13     98     -0.1415          0.6804E+06
   1299      1     13     99     -0.1149          0.6804E+06
   1300      1     13    100     -0.1151          0.6804E+06
   1301      1     14      1      0.5075          0.6804E+06
   1302      1     14      2      0.5045          0.6804E+06
   1303      1     14      3      0.5015          0.6804E+06
   1304      1     14      4      0.4975          0.6804E+06
   1305      1     14      5      0.4922          0.6804E+06
   1306      1     14      6      0.4855          0.6804E+06
   1307      1     14      7      0.4742          0.6804E+06
   1308      1     14      8      0.4567          0.6804E+06
   1309      1     14      9      0.4344          0.6804E+06
   1310      1     14     10      0.4021          0.6804E+06
   1311      1     14     11      0.3712          0.6804E+06
   1312      1     14     12      0.3364          0.6804E+06
   1313      1     14     13      0.3056          0.6804E+06
   1314      1     14     14      0.2873          0.6804E+06
   1315      1     14     15      0.2750          0.6804E+06
   1316      1     14     16      0.2695          0.6804E+06
   1317      1     14     17      0.2634          0.6804E+06
   1318      1     14     18      0.2561          0.6804E+06
   1319      1     14     19      0.2487          0.6804E+06
   1320      1     14     20      0.2391          0.6804E+06
   1321      1     14     21      0.2288          0.6804E+06
   1322      1     14     22      0.2196          0.6804E+06
   1323      1     14     23      0.2086          0.6804E+06
   1324      1     14     24      0.1984          0.6804E+06
   1325      1     14     25      0.1874          0.6804E+06
   1326      1     14     26      0.1778          0.6804E+06
   1327      1     14     27      0.1704          0.6804E+06
   1328      1     14     28      0.1641          0.6804E+06
   1329      1     14     29      0.1614          0.6804E+06
   1330      1     14     30      0.1607          0.6804E+06
   1331      1     14     31      0.1615          0.6804E+06
   1332      1     14     32      0.1645          0.6804E+06
   1333      1     14     33      0.1713          0.6804E+06
   1334      1     14     34      0.1816          0.6804E+06
   1335      1     14     35      0.1949          0.6804E+06
   1336      1     14     36      0.2137          0.6804E+06
   1337      1     14     37      0.2274          0.6804E+06
   1338      1     14     38      0.2180          0.6804E+06
   1339      1     14     39      0.1994          0.6804E+06
   1340      1     14     40      0.1844          0.6804E+06
   1341      1     14     41      0.1727          0.6804E+06
   1342      1     14     42      0.1647          0.6804E+06
   1343      1     14     43      0.1597          0.6804E+06
   1344      1     14     44      0.1550          0.6804E+06
   1345      1     14     45      0.1516          0.6804E+06
   1346      1     14     46      0.1502          0.6804E+06
   1347      1     14     47      0.1491          0.6804E+06
   1348      1     14     48      0.1487          0.6804E+06
   1349      1     14     49      0.1486          0.6804E+06
   1350      1     14     50      0.1485          0.6804E+06
   1351      1     14     51      0.1477          0.6804E+06
   1352      1     14     52      0.1458          0.6804E+06
   1353      1     14     53      0.1444          0.6804E+06
   1354      1     14     54      0.1436          0.6804E+06
   1355      1     14     55      0.1409          0.6804E+06
   1356      1     14     56      0.1375          0.6804E+06
   1357      1     14     57      0.1331          0.6804E+06
   1358      1     14     58      0.1289          0.6804E+06
   1359      1     14     59      0.1246          0.6804E+06
   1360      1     14     60      0.1194          0.6804E+06
   1361      1     14     61      0.1155          0.6804E+06
   1362      1     14     62      0.1122          0.6804E+06
   1363      1     14     63      0.1099          0.6804E+06
   1364      1     14     64      0.1065          0.6804E+06
   1365      1     14     65      0.1005          0.6804E+06
   1366      1     14     66      0.9264E-01      0.6804E+06
   1367      1     14     67      0.8619E-01      0.6804E+06
   1368      1     14     68      0.8330E-01      0.6804E+06
   1369      1     14     69      0.8193E-01      0.6804E+06
   1370      1     14     70      0.8018E-01      0.6804E+06
   1371      1     14     71      0.7730E-01      0.6804E+06
   1372      1     14     72      0.7382E-01      0.6804E+06
   1373      1     14     73      0.6933E-01      0.6804E+06
   1374      1     14     74      0.6537E-01      0.6804E+06
   1375      1     14     75      0.6226E-01      0.6804E+06
   1376      1     14     76      0.5722E-01      0.6804E+06
   1377      1     14     77      0.5278E-01      0.6804E+06
   1378      1     14     78      0.4708E-01      0.6804E+06
   1379      1     14     79      0.3986E-01      0.6804E+06
   1380      1     14     80      0.3278E-01      0.6804E+06
   1381      1     14     81      0.2332E-01      0.6804E+06
   1382      1     14     82      0.1378E-01      0.6804E+06
   1383      1     14     83      0.6767E-02      0.6804E+06
   1384      1     14     84       0.000          0.6804E+06
   1385      1     14     85       0.000          0.6804E+06
   1386      1     14     86       0.000          0.6804E+06
   1387      1     14     87     -0.6990E-01      0.6804E+06
   1388      1     14     88     -0.8457E-01      0.6804E+06
   1389      1     14     89     -0.1005          0.6804E+06
   1390      1     14     90     -0.1123          0.6804E+06
   1391      1     14     91     -0.1239          0.6804E+06
   1392      1     14     92     -0.1294          0.6804E+06
   1393      1     14     93     -0.1235          0.6804E+06
   1394      1     14     94     -0.1113          0.6804E+06
   1395      1     14     95     -0.1083          0.6804E+06
   1396      1     14     96     -0.1203          0.6804E+06
   1397      1     14     97     -0.1151          0.6804E+06
   1398      1     14     98     -0.9548E-01      0.6804E+06
   1399      1     14     99     -0.9044E-01      0.6804E+06
   1400      1     14    100     -0.9852E-01      0.6804E+06
   1401      1     15      1      0.5097          0.6804E+06
   1402      1     15      2      0.5056          0.6804E+06
   1403      1     15      3      0.5017          0.6804E+06
   1404      1     15      4      0.4968          0.6804E+06
   1405      1     15      5      0.4910          0.6804E+06
   1406      1     15      6      0.4845          0.6804E+06
   1407      1     15      7      0.4742          0.6804E+06
   1408      1     15      8      0.4581          0.6804E+06
   1409      1     15      9      0.4357          0.6804E+06
   1410      1     15     10      0.4026          0.6804E+06
   1411      1     15     11      0.3704          0.6804E+06
   1412      1     15     12      0.3344          0.6804E+06
   1413      1     15     13      0.3034          0.6804E+06
   1414      1     15     14      0.2839          0.6804E+06
   1415      1     15     15      0.2688          0.6804E+06
   1416      1     15     16      0.2604          0.6804E+06
   1417      1     15     17      0.2518          0.6804E+06
   1418      1     15     18      0.2425          0.6804E+06
   1419      1     15     19      0.2338          0.6804E+06
   1420      1     15     20      0.2228          0.6804E+06
   1421      1     15     21      0.2115          0.6804E+06
   1422      1     15     22      0.2016          0.6804E+06
   1423      1     15     23      0.1904          0.6804E+06
   1424      1     15     24      0.1804          0.6804E+06
   1425      1     15     25      0.1697          0.6804E+06
   1426      1     15     26      0.1606          0.6804E+06
   1427      1     15     27      0.1537          0.6804E+06
   1428      1     15     28      0.1482          0.6804E+06
   1429      1     15     29      0.1468          0.6804E+06
   1430      1     15     30      0.1467          0.6804E+06
   1431      1     15     31      0.1483          0.6804E+06
   1432      1     15     32      0.1522          0.6804E+06
   1433      1     15     33      0.1601          0.6804E+06
   1434      1     15     34      0.1709          0.6804E+06
   1435      1     15     35      0.1831          0.6804E+06
   1436      1     15     36      0.1983          0.6804E+06
   1437      1     15     37      0.2078          0.6804E+06
   1438      1     15     38      0.2007          0.6804E+06
   1439      1     15     39      0.1863          0.6804E+06
   1440      1     15     40      0.1735          0.6804E+06
   1441      1     15     41      0.1624          0.6804E+06
   1442      1     15     42      0.1549          0.6804E+06
   1443      1     15     43      0.1497          0.6804E+06
   1444      1     15     44      0.1454          0.6804E+06
   1445      1     15     45      0.1435          0.6804E+06
   1446      1     15     46      0.1436          0.6804E+06
   1447      1     15     47      0.1428          0.6804E+06
   1448      1     15     48      0.1416          0.6804E+06
   1449      1     15     49      0.1399          0.6804E+06
   1450      1     15     50      0.1384          0.6804E+06
   1451      1     15     51      0.1357          0.6804E+06
   1452      1     15     52      0.1348          0.6804E+06
   1453      1     15     53      0.1345          0.6804E+06
   1454      1     15     54      0.1321          0.6804E+06
   1455      1     15     55      0.1286          0.6804E+06
   1456      1     15     56      0.1247          0.6804E+06
   1457      1     15     57      0.1202          0.6804E+06
   1458      1     15     58      0.1164          0.6804E+06
   1459      1     15     59      0.1120          0.6804E+06
   1460      1     15     60      0.1064          0.6804E+06
   1461      1     15     61      0.1027          0.6804E+06
   1462      1     15     62      0.1004          0.6804E+06
   1463      1     15     63      0.9913E-01      0.6804E+06
   1464      1     15     64      0.9672E-01      0.6804E+06
   1465      1     15     65      0.9227E-01      0.6804E+06
   1466      1     15     66      0.8654E-01      0.6804E+06
   1467      1     15     67      0.8177E-01      0.6804E+06
   1468      1     15     68      0.7807E-01      0.6804E+06
   1469      1     15     69      0.7570E-01      0.6804E+06
   1470      1     15     70      0.7318E-01      0.6804E+06
   1471      1     15     71      0.6998E-01      0.6804E+06
   1472      1     15     72      0.6634E-01      0.6804E+06
   1473      1     15     73      0.6178E-01      0.6804E+06
   1474      1     15     74      0.5740E-01      0.6804E+06
   1475      1     15     75      0.5345E-01      0.6804E+06
   1476      1     15     76      0.4765E-01      0.6804E+06
   1477      1     15     77      0.4245E-01      0.6804E+06
   1478      1     15     78      0.3577E-01      0.6804E+06
   1479      1     15     79      0.2695E-01      0.6804E+06
   1480      1     15     80      0.1672E-01      0.6804E+06
   1481      1     15     81      0.4409E-02      0.6804E+06
   1482      1     15     82       0.000          0.6804E+06
   1483      1     15     83       0.000          0.6804E+06
   1484      1     15     84       0.000          0.6804E+06
   1485      1     15     85     -0.5727E-01      0.6804E+06
   1486      1     15     86     -0.7659E-01      0.6804E+06
   1487      1     15     87     -0.9258E-01      0.6804E+06
   1488      1     15     88     -0.1039          0.6804E+06
   1489      1     15     89     -0.1146          0.6804E+06
   1490      1     15     90     -0.1237          0.6804E+06
   1491      1     15     91     -0.1298          0.6804E+06
   1492      1     15     92     -0.1364          0.6804E+06
   1493      1     15     93     -0.9256E-01      0.6804E+06
   1494      1     15     94     -0.6529E-01      0.6804E+06
   1495      1     15     95     -0.4532E-01      0.6804E+06
   1496      1     15     96     -0.3364E-01      0.6804E+06
   1497      1     15     97     -0.2528E-01      0.6804E+06
   1498      1     15     98     -0.1991E-01      0.6804E+06
   1499      1     15     99     -0.2013E-01      0.6804E+06
   1500      1     15    100     -0.2466E-01      0.6804E+06
   1501      1     16      1      0.5117          0.6804E+06
   1502      1     16      2      0.5062          0.6804E+06
   1503      1     16      3      0.5011          0.6804E+06
   1504      1     16      4      0.4951          0.6804E+06
   1505      1     16      5      0.4888          0.6804E+06
   1506      1     16      6      0.4828          0.6804E+06
   1507      1     16      7      0.4744          0.6804E+06
   1508      1     16      8      0.4616          0.6804E+06
   1509      1     16      9      0.4391          0.6804E+06
   1510      1     16     10      0.4047          0.6804E+06
   1511      1     16     11      0.3710          0.6804E+06
   1512      1     16     12      0.3335          0.6804E+06
   1513      1     16     13      0.3011          0.6804E+06
   1514      1     16     14      0.2806          0.6804E+06
   1515      1     16     15      0.2641          0.6804E+06
   1516      1     16     16      0.2535          0.6804E+06
   1517      1     16     17      0.2422          0.6804E+06
   1518      1     16     18      0.2306          0.6804E+06
   1519      1     16     19      0.2201          0.6804E+06
   1520      1     16     20      0.2073          0.6804E+06
   1521      1     16     21      0.1940          0.6804E+06
   1522      1     16     22      0.1829          0.6804E+06
   1523      1     16     23      0.1706          0.6804E+06
   1524      1     16     24      0.1597          0.6804E+06
   1525      1     16     25      0.1484          0.6804E+06
   1526      1     16     26      0.1396          0.6804E+06
   1527      1     16     27      0.1334          0.6804E+06
   1528      1     16     28      0.1290          0.6804E+06
   1529      1     16     29      0.1286          0.6804E+06
   1530      1     16     30      0.1287          0.6804E+06
   1531      1     16     31      0.1310          0.6804E+06
   1532      1     16     32      0.1358          0.6804E+06
   1533      1     16     33      0.1437          0.6804E+06
   1534      1     16     34      0.1528          0.6804E+06
   1535      1     16     35      0.1609          0.6804E+06
   1536      1     16     36      0.1686          0.6804E+06
   1537      1     16     37      0.1713          0.6804E+06
   1538      1     16     38      0.1682          0.6804E+06
   1539      1     16     39      0.1613          0.6804E+06
   1540      1     16     40      0.1537          0.6804E+06
   1541      1     16     41      0.1457          0.6804E+06
   1542      1     16     42      0.1414          0.6804E+06
   1543      1     16     43      0.1373          0.6804E+06
   1544      1     16     44      0.1339          0.6804E+06
   1545      1     16     45      0.1332          0.6804E+06
   1546      1     16     46      0.1338          0.6804E+06
   1547      1     16     47      0.1335          0.6804E+06
   1548      1     16     48      0.1321          0.6804E+06
   1549      1     16     49      0.1293          0.6804E+06
   1550      1     16     50      0.1260          0.6804E+06
   1551      1     16     51      0.1247          0.6804E+06
   1552      1     16     52      0.1238          0.6804E+06
   1553      1     16     53      0.1221          0.6804E+06
   1554      1     16     54      0.1190          0.6804E+06
   1555      1     16     55      0.1149          0.6804E+06
   1556      1     16     56      0.1106          0.6804E+06
   1557      1     16     57      0.1062          0.6804E+06
   1558      1     16     58      0.1032          0.6804E+06
   1559      1     16     59      0.9961E-01      0.6804E+06
   1560      1     16     60      0.9462E-01      0.6804E+06
   1561      1     16     61      0.9123E-01      0.6804E+06
   1562      1     16     62      0.8954E-01      0.6804E+06
   1563      1     16     63      0.8927E-01      0.6804E+06
   1564      1     16     64      0.8770E-01      0.6804E+06
   1565      1     16     65      0.8443E-01      0.6804E+06
   1566      1     16     66      0.8000E-01      0.6804E+06
   1567      1     16     67      0.7607E-01      0.6804E+06
   1568      1     16     68      0.7199E-01      0.6804E+06
   1569      1     16     69      0.6876E-01      0.6804E+06
   1570      1     16     70      0.6524E-01      0.6804E+06
   1571      1     16     71      0.6114E-01      0.6804E+06
   1572      1     16     72      0.5699E-01      0.6804E+06
   1573      1     16     73      0.5135E-01      0.6804E+06
   1574      1     16     74      0.4537E-01      0.6804E+06
   1575      1     16     75      0.4001E-01      0.6804E+06
   1576      1     16     76      0.3291E-01      0.6804E+06
   1577      1     16     77      0.2612E-01      0.6804E+06
   1578      1     16     78      0.1827E-01      0.6804E+06
   1579      1     16     79      0.9393E-02      0.6804E+06
   1580      1     16     80       0.000          0.6804E+06
   1581      1     16     81       0.000          0.6804E+06
   1582      1     16     82       0.000          0.6804E+06
   1583      1     16     83     -0.5502E-01      0.6804E+06
   1584      1     16     84     -0.7255E-01      0.6804E+06
   1585      1     16     85     -0.8768E-01      0.6804E+06
   1586      1     16     86     -0.1024          0.6804E+06
   1587      1     16     87     -0.1115          0.6804E+06
   1588      1     16     88     -0.1170          0.6804E+06
   1589      1     16     89     -0.1233          0.6804E+06
   1590      1     16     90     -0.1447          0.6804E+06
   1591      1     16     91     -0.1675          0.6804E+06
   1592      1     16     92     -0.8646E-01      0.6804E+06
   1593      1     16     93     -0.3336E-01      0.6804E+06
   1594      1     16     94     -0.6072E-02      0.6804E+06
   1595      1     16     95      0.8056E-02      0.6804E+06
   1596      1     16     96      0.1391E-01      0.6804E+06
   1597      1     16     97      0.1903E-01      0.6804E+06
   1598      1     16     98      0.2325E-01      0.6804E+06
   1599      1     16     99      0.2518E-01      0.6804E+06
   1600      1     16    100      0.2259E-01      0.6804E+06
   1601      1     17      1      0.5132          0.6804E+06
   1602      1     17      2      0.5061          0.6804E+06
   1603      1     17      3      0.4996          0.6804E+06
   1604      1     17      4      0.4924          0.6804E+06
   1605      1     17      5      0.4856          0.6804E+06
   1606      1     17      6      0.4796          0.6804E+06
   1607      1     17      7      0.4724          0.6804E+06
   1608      1     17      8      0.4619          0.6804E+06
   1609      1     17      9      0.4397          0.6804E+06
   1610      1     17     10      0.4053          0.6804E+06
   1611      1     17     11      0.3715          0.6804E+06
   1612      1     17     12      0.3337          0.6804E+06
   1613      1     17     13      0.3002          0.6804E+06
   1614      1     17     14      0.2792          0.6804E+06
   1615      1     17     15      0.2623          0.6804E+06
   1616      1     17     16      0.2502          0.6804E+06
   1617      1     17     17      0.2367          0.6804E+06
   1618      1     17     18      0.2231          0.6804E+06
   1619      1     17     19      0.2108          0.6804E+06
   1620      1     17     20      0.1962          0.6804E+06
   1621      1     17     21      0.1812          0.6804E+06
   1622      1     17     22      0.1685          0.6804E+06
   1623      1     17     23      0.1543          0.6804E+06
   1624      1     17     24      0.1419          0.6804E+06
   1625      1     17     25      0.1295          0.6804E+06
   1626      1     17     26      0.1200          0.6804E+06
   1627      1     17     27      0.1139          0.6804E+06
   1628      1     17     28      0.1103          0.6804E+06
   1629      1     17     29      0.1107          0.6804E+06
   1630      1     17     30      0.1120          0.6804E+06
   1631      1     17     31      0.1153          0.6804E+06
   1632      1     17     32      0.1203          0.6804E+06
   1633      1     17     33      0.1270          0.6804E+06
   1634      1     17     34      0.1337          0.6804E+06
   1635      1     17     35      0.1382          0.6804E+06
   1636      1     17     36      0.1404          0.6804E+06
   1637      1     17     37      0.1388          0.6804E+06
   1638      1     17     38      0.1377          0.6804E+06
   1639      1     17     39      0.1360          0.6804E+06
   1640      1     17     40      0.1331          0.6804E+06
   1641      1     17     41      0.1291          0.6804E+06
   1642      1     17     42      0.1276          0.6804E+06
   1643      1     17     43      0.1251          0.6804E+06
   1644      1     17     44      0.1228          0.6804E+06
   1645      1     17     45      0.1228          0.6804E+06
   1646      1     17     46      0.1235          0.6804E+06
   1647      1     17     47      0.1234          0.6804E+06
   1648      1     17     48      0.1220          0.6804E+06
   1649      1     17     49      0.1190          0.6804E+06
   1650      1     17     50      0.1160          0.6804E+06
   1651      1     17     51      0.1151          0.6804E+06
   1652      1     17     52      0.1138          0.6804E+06
   1653      1     17     53      0.1116          0.6804E+06
   1654      1     17     54      0.1082          0.6804E+06
   1655      1     17     55      0.1036          0.6804E+06
   1656      1     17     56      0.9933E-01      0.6804E+06
   1657      1     17     57      0.9552E-01      0.6804E+06
   1658      1     17     58      0.9389E-01      0.6804E+06
   1659      1     17     59      0.9159E-01      0.6804E+06
   1660      1     17     60      0.8807E-01      0.6804E+06
   1661      1     17     61      0.8546E-01      0.6804E+06
   1662      1     17     62      0.8386E-01      0.6804E+06
   1663      1     17     63      0.8290E-01      0.6804E+06
   1664      1     17     64      0.8115E-01      0.6804E+06
   1665      1     17     65      0.7799E-01      0.6804E+06
   1666      1     17     66      0.7371E-01      0.6804E+06
   1667      1     17     67      0.6994E-01      0.6804E+06
   1668      1     17     68      0.6543E-01      0.6804E+06
   1669      1     17     69      0.6161E-01      0.6804E+06
   1670      1     17     70      0.5726E-01      0.6804E+06
   1671      1     17     71      0.5201E-01      0.6804E+06
   1672      1     17     72      0.4704E-01      0.6804E+06
   1673      1     17     73      0.3964E-01      0.6804E+06
   1674      1     17     74      0.3137E-01      0.6804E+06
   1675      1     17     75      0.2447E-01      0.6804E+06
   1676      1     17     76      0.1673E-01      0.6804E+06
   1677      1     17     77      0.7928E-02      0.6804E+06
   1678      1     17     78       0.000          0.6804E+06
   1679      1     17     79       0.000          0.6804E+06
   1680      1     17     80       0.000          0.6804E+06
   1681      1     17     81     -0.5108E-01      0.6804E+06
   1682      1     17     82     -0.6802E-01      0.6804E+06
   1683      1     17     83     -0.8274E-01      0.6804E+06
   1684      1     17     84     -0.9991E-01      0.6804E+06
   1685      1     17     85     -0.1090          0.6804E+06
   1686      1     17     86     -0.1146          0.6804E+06
   1687      1     17     87     -0.1207          0.6804E+06
   1688      1     17     88     -0.1303          0.6804E+06
   1689      1     17     89     -0.1228          0.6804E+06
   1690      1     17     90     -0.1321          0.6804E+06
   1691      1     17     91     -0.1019          0.6804E+06
   1692      1     17     92     -0.4046E-01      0.6804E+06
   1693      1     17     93     -0.4846E-02      0.6804E+06
   1694      1     17     94      0.2199E-01      0.6804E+06
   1695      1     17     95      0.3200E-01      0.6804E+06
   1696      1     17     96      0.3853E-01      0.6804E+06
   1697      1     17     97      0.4280E-01      0.6804E+06
   1698      1     17     98      0.4569E-01      0.6804E+06
   1699      1     17     99      0.4825E-01      0.6804E+06
   1700      1     17    100      0.4855E-01      0.6804E+06
   1701      1     18      1      0.5150          0.6804E+06
   1702      1     18      2      0.5057          0.6804E+06
   1703      1     18      3      0.4971          0.6804E+06
   1704      1     18      4      0.4879          0.6804E+06
   1705      1     18      5      0.4798          0.6804E+06
   1706      1     18      6      0.4730          0.6804E+06
   1707      1     18      7      0.4644          0.6804E+06
   1708      1     18      8      0.4516          0.6804E+06
   1709      1     18      9      0.4319          0.6804E+06
   1710      1     18     10      0.4020          0.6804E+06
   1711      1     18     11      0.3718          0.6804E+06
   1712      1     18     12      0.3362          0.6804E+06
   1713      1     18     13      0.3032          0.6804E+06
   1714      1     18     14      0.2818          0.6804E+06
   1715      1     18     15      0.2638          0.6804E+06
   1716      1     18     16      0.2494          0.6804E+06
   1717      1     18     17      0.2333          0.6804E+06
   1718      1     18     18      0.2170          0.6804E+06
   1719      1     18     19      0.2027          0.6804E+06
   1720      1     18     20      0.1862          0.6804E+06
   1721      1     18     21      0.1691          0.6804E+06
   1722      1     18     22      0.1541          0.6804E+06
   1723      1     18     23      0.1371          0.6804E+06
   1724      1     18     24      0.1224          0.6804E+06
   1725      1     18     25      0.1077          0.6804E+06
   1726      1     18     26      0.9683E-01      0.6804E+06
   1727      1     18     27      0.9037E-01      0.6804E+06
   1728      1     18     28      0.8722E-01      0.6804E+06
   1729      1     18     29      0.8822E-01      0.6804E+06
   1730      1     18     30      0.9017E-01      0.6804E+06
   1731      1     18     31      0.9450E-01      0.6804E+06
   1732      1     18     32      0.1004          0.6804E+06
   1733      1     18     33      0.1067          0.6804E+06
   1734      1     18     34      0.1114          0.6804E+06
   1735      1     18     35      0.1126          0.6804E+06
   1736      1     18     36      0.1102          0.6804E+06
   1737      1     18     37      0.1052          0.6804E+06
   1738      1     18     38      0.1062          0.6804E+06
   1739      1     18     39      0.1093          0.6804E+06
   1740      1     18     40      0.1112          0.6804E+06
   1741      1     18     41      0.1112          0.6804E+06
   1742      1     18     42      0.1096          0.6804E+06
   1743      1     18     43      0.1083          0.6804E+06
   1744      1     18     44      0.1079          0.6804E+06
   1745      1     18     45      0.1090          0.6804E+06
   1746      1     18     46      0.1104          0.6804E+06
   1747      1     18     47      0.1104          0.6804E+06
   1748      1     18     48      0.1092          0.6804E+06
   1749      1     18     49      0.1066          0.6804E+06
   1750      1     18     50      0.1047          0.6804E+06
   1751      1     18     51      0.1038          0.6804E+06
   1752      1     18     52      0.1026          0.6804E+06
   1753      1     18     53      0.1007          0.6804E+06
   1754      1     18     54      0.9736E-01      0.6804E+06
   1755      1     18     55      0.9312E-01      0.6804E+06
   1756      1     18     56      0.8958E-01      0.6804E+06
   1757      1     18     57      0.8681E-01      0.6804E+06
   1758      1     18     58      0.8607E-01      0.6804E+06
   1759      1     18     59      0.8470E-01      0.6804E+06
   1760      1     18     60      0.8208E-01      0.6804E+06
   1761      1     18     61      0.7980E-01      0.6804E+06
   1762      1     18     62      0.7801E-01      0.6804E+06
   1763      1     18     63      0.7614E-01      0.6804E+06
   1764      1     18     64      0.7453E-01      0.6804E+06
   1765      1     18     65      0.7158E-01      0.6804E+06
   1766      1     18     66      0.6652E-01      0.6804E+06
   1767      1     18     67      0.6196E-01      0.6804E+06
   1768      1     18     68      0.5659E-01      0.6804E+06
   1769      1     18     69      0.5138E-01      0.6804E+06
   1770      1     18     70      0.4482E-01      0.6804E+06
   1771      1     18     71      0.3818E-01      0.6804E+06
   1772      1     18     72      0.3179E-01      0.6804E+06
   1773      1     18     73      0.2190E-01      0.6804E+06
   1774      1     18     74      0.1020E-01      0.6804E+06
   1775      1     18     75      0.1296E-02      0.6804E+06
   1776      1     18     76       0.000          0.6804E+06
   1777      1     18     77       0.000          0.6804E+06
   1778      1     18     78     -0.3925E-01      0.6804E+06
   1779      1     18     79     -0.5736E-01      0.6804E+06
   1780      1     18     80     -0.6973E-01      0.6804E+06
   1781      1     18     81     -0.8366E-01      0.6804E+06
   1782      1     18     82     -0.9921E-01      0.6804E+06
   1783      1     18     83     -0.1082          0.6804E+06
   1784      1     18     84     -0.1187          0.6804E+06
   1785      1     18     85     -0.1239          0.6804E+06
   1786      1     18     86     -0.1364          0.6804E+06
   1787      1     18     87     -0.1754          0.6804E+06
   1788      1     18     88     -0.1704          0.6804E+06
   1789      1     18     89     -0.1120          0.6804E+06
   1790      1     18     90     -0.7852E-01      0.6804E+06
   1791      1     18     91     -0.5010E-01      0.6804E+06
   1792      1     18     92     -0.1938E-01      0.6804E+06
   1793      1     18     93      0.1274E-01      0.6804E+06
   1794      1     18     94      0.3358E-01      0.6804E+06
   1795      1     18     95      0.4648E-01      0.6804E+06
   1796      1     18     96      0.5397E-01      0.6804E+06
   1797      1     18     97      0.5858E-01      0.6804E+06
   1798      1     18     98      0.6146E-01      0.6804E+06
   1799      1     18     99      0.6370E-01      0.6804E+06
   1800      1     18    100      0.6368E-01      0.6804E+06
   1801      1     19      1      0.5176          0.6804E+06
   1802      1     19      2      0.5056          0.6804E+06
   1803      1     19      3      0.4941          0.6804E+06
   1804      1     19      4      0.4822          0.6804E+06
   1805      1     19      5      0.4725          0.6804E+06
   1806      1     19      6      0.4650          0.6804E+06
   1807      1     19      7      0.4553          0.6804E+06
   1808      1     19      8      0.4415          0.6804E+06
   1809      1     19      9      0.4239          0.6804E+06
   1810      1     19     10      0.3986          0.6804E+06
   1811      1     19     11      0.3731          0.6804E+06
   1812      1     19     12      0.3424          0.6804E+06
   1813      1     19     13      0.3132          0.6804E+06
   1814      1     19     14      0.2912          0.6804E+06
   1815      1     19     15      0.2694          0.6804E+06
   1816      1     19     16      0.2516          0.6804E+06
   1817      1     19     17      0.2320          0.6804E+06
   1818      1     19     18      0.2130          0.6804E+06
   1819      1     19     19      0.1969          0.6804E+06
   1820      1     19     20      0.1786          0.6804E+06
   1821      1     19     21      0.1591          0.6804E+06
   1822      1     19     22      0.1416          0.6804E+06
   1823      1     19     23      0.1216          0.6804E+06
   1824      1     19     24      0.1042          0.6804E+06
   1825      1     19     25      0.8605E-01      0.6804E+06
   1826      1     19     26      0.7284E-01      0.6804E+06
   1827      1     19     27      0.6629E-01      0.6804E+06
   1828      1     19     28      0.6528E-01      0.6804E+06
   1829      1     19     29      0.6610E-01      0.6804E+06
   1830      1     19     30      0.6813E-01      0.6804E+06
   1831      1     19     31      0.7319E-01      0.6804E+06
   1832      1     19     32      0.8027E-01      0.6804E+06
   1833      1     19     33      0.8782E-01      0.6804E+06
   1834      1     19     34      0.9142E-01      0.6804E+06
   1835      1     19     35      0.9206E-01      0.6804E+06
   1836      1     19     36      0.9011E-01      0.6804E+06
   1837      1     19     37      0.8604E-01      0.6804E+06
   1838      1     19     38      0.8684E-01      0.6804E+06
   1839      1     19     39      0.9017E-01      0.6804E+06
   1840      1     19     40      0.9291E-01      0.6804E+06
   1841      1     19     41      0.9369E-01      0.6804E+06
   1842      1     19     42      0.9127E-01      0.6804E+06
   1843      1     19     43      0.9041E-01      0.6804E+06
   1844      1     19     44      0.9178E-01      0.6804E+06
   1845      1     19     45      0.9528E-01      0.6804E+06
   1846      1     19     46      0.9760E-01      0.6804E+06
   1847      1     19     47      0.9823E-01      0.6804E+06
   1848      1     19     48      0.9748E-01      0.6804E+06
   1849      1     19     49      0.9529E-01      0.6804E+06
   1850      1     19     50      0.9284E-01      0.6804E+06
   1851      1     19     51      0.9261E-01      0.6804E+06
   1852      1     19     52      0.9243E-01      0.6804E+06
   1853      1     19     53      0.9105E-01      0.6804E+06
   1854      1     19     54      0.8836E-01      0.6804E+06
   1855      1     19     55      0.8527E-01      0.6804E+06
   1856      1     19     56      0.8289E-01      0.6804E+06
   1857      1     19     57      0.8097E-01      0.6804E+06
   1858      1     19     58      0.7977E-01      0.6804E+06
   1859      1     19     59      0.7843E-01      0.6804E+06
   1860      1     19     60      0.7613E-01      0.6804E+06
   1861      1     19     61      0.7399E-01      0.6804E+06
   1862      1     19     62      0.7179E-01      0.6804E+06
   1863      1     19     63      0.6910E-01      0.6804E+06
   1864      1     19     64      0.6662E-01      0.6804E+06
   1865      1     19     65      0.6244E-01      0.6804E+06
   1866      1     19     66      0.5576E-01      0.6804E+06
   1867      1     19     67      0.4981E-01      0.6804E+06
   1868      1     19     68      0.4356E-01      0.6804E+06
   1869      1     19     69      0.3713E-01      0.6804E+06
   1870      1     19     70      0.2787E-01      0.6804E+06
   1871      1     19     71      0.1825E-01      0.6804E+06
   1872      1     19     72      0.1143E-01      0.6804E+06
   1873      1     19     73       0.000          0.6804E+06
   1874      1     19     74       0.000          0.6804E+06
   1875      1     19     75       0.000          0.6804E+06
   1876      1     19     76     -0.4811E-01      0.6804E+06
   1877      1     19     77     -0.6180E-01      0.6804E+06
   1878      1     19     78     -0.7619E-01      0.6804E+06
   1879      1     19     79     -0.8926E-01      0.6804E+06
   1880      1     19     80     -0.9948E-01      0.6804E+06
   1881      1     19     81     -0.1092          0.6804E+06
   1882      1     19     82     -0.1171          0.6804E+06
   1883      1     19     83     -0.1248          0.6804E+06
   1884      1     19     84     -0.1330          0.6804E+06
   1885      1     19     85     -0.1743          0.6804E+06
   1886      1     19     86     -0.1870          0.6804E+06
   1887      1     19     87     -0.1366          0.6804E+06
   1888      1     19     88     -0.9559E-01      0.6804E+06
   1889      1     19     89     -0.5371E-01      0.6804E+06
   1890      1     19     90     -0.3088E-01      0.6804E+06
   1891      1     19     91       0.000          0.6804E+06
   1892      1     19     92      0.6593E-02      0.6804E+06
   1893      1     19     93      0.2592E-01      0.6804E+06
   1894      1     19     94      0.4330E-01      0.6804E+06
   1895      1     19     95      0.5508E-01      0.6804E+06
   1896      1     19     96      0.6197E-01      0.6804E+06
   1897      1     19     97      0.6685E-01      0.6804E+06
   1898      1     19     98      0.6967E-01      0.6804E+06
   1899      1     19     99      0.7151E-01      0.6804E+06
   1900      1     19    100      0.7148E-01      0.6804E+06
   1901      1     20      1      0.5212          0.6804E+06
   1902      1     20      2      0.5070          0.6804E+06
   1903      1     20      3      0.4923          0.6804E+06
   1904      1     20      4      0.4771          0.6804E+06
   1905      1     20      5      0.4665          0.6804E+06
   1906      1     20      6      0.4589          0.6804E+06
   1907      1     20      7      0.4486          0.6804E+06
   1908      1     20      8      0.4348          0.6804E+06
   1909      1     20      9      0.4189          0.6804E+06
   1910      1     20     10      0.3970          0.6804E+06
   1911      1     20     11      0.3752          0.6804E+06
   1912      1     20     12      0.3487          0.6804E+06
   1913      1     20     13      0.3223          0.6804E+06
   1914      1     20     14      0.3000          0.6804E+06
   1915      1     20     15      0.2755          0.6804E+06
   1916      1     20     16      0.2546          0.6804E+06
   1917      1     20     17      0.2317          0.6804E+06
   1918      1     20     18      0.2100          0.6804E+06
   1919      1     20     19      0.1921          0.6804E+06
   1920      1     20     20      0.1726          0.6804E+06
   1921      1     20     21      0.1514          0.6804E+06
   1922      1     20     22      0.1320          0.6804E+06
   1923      1     20     23      0.1095          0.6804E+06
   1924      1     20     24      0.8968E-01      0.6804E+06
   1925      1     20     25      0.6781E-01      0.6804E+06
   1926      1     20     26      0.5087E-01      0.6804E+06
   1927      1     20     27      0.4460E-01      0.6804E+06
   1928      1     20     28      0.4977E-01      0.6804E+06
   1929      1     20     29      0.4771E-01      0.6804E+06
   1930      1     20     30      0.4847E-01      0.6804E+06
   1931      1     20     31      0.5406E-01      0.6804E+06
   1932      1     20     32      0.6286E-01      0.6804E+06
   1933      1     20     33      0.7250E-01      0.6804E+06
   1934      1     20     34      0.7727E-01      0.6804E+06
   1935      1     20     35      0.7922E-01      0.6804E+06
   1936      1     20     36      0.7916E-01      0.6804E+06
   1937      1     20     37      0.7646E-01      0.6804E+06
   1938      1     20     38      0.7621E-01      0.6804E+06
   1939      1     20     39      0.7841E-01      0.6804E+06
   1940      1     20     40      0.8075E-01      0.6804E+06
   1941      1     20     41      0.8079E-01      0.6804E+06
   1942      1     20     42      0.7755E-01      0.6804E+06
   1943      1     20     43      0.7669E-01      0.6804E+06
   1944      1     20     44      0.7909E-01      0.6804E+06
   1945      1     20     45      0.8425E-01      0.6804E+06
   1946      1     20     46      0.8734E-01      0.6804E+06
   1947      1     20     47      0.8883E-01      0.6804E+06
   1948      1     20     51      0.8471E-01      0.6804E+06
   1949      1     20     52      0.8441E-01      0.6804E+06
   1950      1     20     53      0.8326E-01      0.6804E+06
   1951      1     20     54      0.8101E-01      0.6804E+06
   1952      1     20     55      0.7882E-01      0.6804E+06
   1953      1     20     56      0.7735E-01      0.6804E+06
   1954      1     20     57      0.7594E-01      0.6804E+06
   1955      1     20     58      0.7366E-01      0.6804E+06
   1956      1     20     59      0.7195E-01      0.6804E+06
   1957      1     20     60      0.6980E-01      0.6804E+06
   1958      1     20     61      0.6777E-01      0.6804E+06
   1959      1     20     62      0.6493E-01      0.6804E+06
   1960      1     20     63      0.6146E-01      0.6804E+06
   1961      1     20     64      0.5748E-01      0.6804E+06
   1962      1     20     65      0.5119E-01      0.6804E+06
   1963      1     20     66      0.4242E-01      0.6804E+06
   1964      1     20     67      0.3469E-01      0.6804E+06
   1965      1     20     68      0.2779E-01      0.6804E+06
   1966      1     20     69      0.2071E-01      0.6804E+06
   1967      1     20     70      0.9427E-02      0.6804E+06
   1968      1     20     71       0.000          0.6804E+06
   1969      1     20     72       0.000          0.6804E+06
   1970      1     20     73       0.000          0.6804E+06
   1971      1     20     74     -0.5225E-01      0.6804E+06
   1972      1     20     75     -0.6646E-01      0.6804E+06
   1973      1     20     76     -0.8003E-01      0.6804E+06
   1974      1     20     77     -0.8980E-01      0.6804E+06
   1975      1     20     78     -0.9913E-01      0.6804E+06
   1976      1     20     79     -0.1119          0.6804E+06
   1977      1     20     80     -0.1193          0.6804E+06
   1978      1     20     81     -0.1278          0.6804E+06
   1979      1     20     82     -0.1351          0.6804E+06
   1980      1     20     83     -0.1553          0.6804E+06
   1981      1     20     84     -0.1670          0.6804E+06
   1982      1     20     85     -0.1711          0.6804E+06
   1983      1     20     86     -0.1401          0.6804E+06
   1984      1     20     87     -0.9201E-01      0.6804E+06
   1985      1     20     88     -0.5229E-01      0.6804E+06
   1986      1     20     89       0.000          0.6804E+06
   1987      1     20     90       0.000          0.6804E+06
   1988      1     20     91      0.7465E-02      0.6804E+06
   1989      1     20     92      0.2308E-01      0.6804E+06
   1990      1     20     93      0.3655E-01      0.6804E+06
   1991      1     20     94      0.4974E-01      0.6804E+06
   1992      1     20     95      0.5962E-01      0.6804E+06
   1993      1     20     96      0.6572E-01      0.6804E+06
   1994      1     20     97      0.7040E-01      0.6804E+06
   1995      1     20     98      0.7301E-01      0.6804E+06
   1996      1     20     99      0.7457E-01      0.6804E+06
   1997      1     20    100      0.7499E-01      0.6804E+06
   1998      1     21      1      0.5283          0.6804E+06
   1999      1     21      2      0.5123          0.6804E+06
   2000      1     21      3      0.4940          0.6804E+06
   2001      1     21      4      0.4748          0.6804E+06
   2002      1     21      5      0.4628          0.6804E+06
   2003      1     21      6      0.4548          0.6804E+06
   2004      1     21      7      0.4436          0.6804E+06
   2005      1     21      8      0.4298          0.6804E+06
   2006      1     21      9      0.4154          0.6804E+06
   2007      1     21     10      0.3965          0.6804E+06
   2008      1     21     11      0.3781          0.6804E+06
   2009      1     21     12      0.3558          0.6804E+06
   2010      1     21     13      0.3322          0.6804E+06
   2011      1     21     14      0.3099          0.6804E+06
   2012      1     21     15      0.2825          0.6804E+06
   2013      1     21     16      0.2579          0.6804E+06
   2014      1     21     17      0.2310          0.6804E+06
   2015      1     21     18      0.2059          0.6804E+06
   2016      1     21     19      0.1857          0.6804E+06
   2017      1     21     20      0.1643          0.6804E+06
   2018      1     21     21      0.1420          0.6804E+06
   2019      1     21     22      0.1219          0.6804E+06
   2020      1     21     23      0.9860E-01      0.6804E+06
   2021      1     21     24      0.7769E-01      0.6804E+06
   2022      1     21     25      0.5323E-01      0.6804E+06
   2023      1     21     26      0.2662E-01      0.6804E+06
   2024      1     21     27      0.1951E-01      0.6804E+06
   2025      1     21     28      0.4433E-01      0.6804E+06
   2026      1     21     29      0.2549E-01      0.6804E+06
   2027      1     21     30      0.2099E-01      0.6804E+06
   2028      1     21     31      0.2971E-01      0.6804E+06
   2029      1     21     32      0.4322E-01      0.6804E+06
   2030      1     21     33      0.5650E-01      0.6804E+06
   2031      1     21     34      0.6593E-01      0.6804E+06
   2032      1     21     35      0.7071E-01      0.6804E+06
   2033      1     21     36      0.7173E-01      0.6804E+06
   2034      1     21     37      0.6967E-01      0.6804E+06
   2035      1     21     38      0.6856E-01      0.6804E+06
   2036      1     21     39      0.6954E-01      0.6804E+06
   2037      1     21     40      0.7109E-01      0.6804E+06
   2038      1     21     41      0.6987E-01      0.6804E+06
   2039      1     21     56      0.6843E-01      0.6804E+06
   2040      1     21     57      0.6701E-01      0.6804E+06
   2041      1     21     58      0.6502E-01      0.6804E+06
   2042      1     21     59      0.6282E-01      0.6804E+06
   2043      1     21     60      0.5955E-01      0.6804E+06
   2044      1     21     61      0.5637E-01      0.6804E+06
   2045      1     21     62      0.5239E-01      0.6804E+06
   2046      1     21     63      0.4805E-01      0.6804E+06
   2047      1     21     64      0.4269E-01      0.6804E+06
   2048      1     21     65      0.3382E-01      0.6804E+06
   2049      1     21     66      0.2187E-01      0.6804E+06
   2050      1     21     67      0.1296E-01      0.6804E+06
   2051      1     21     68      0.5722E-02      0.6804E+06
   2052      1     21     69       0.000          0.6804E+06
   2053      1     21     70       0.000          0.6804E+06
   2054      1     21     71       0.000          0.6804E+06
   2055      1     21     72     -0.5984E-01      0.6804E+06
   2056      1     21     73     -0.7586E-01      0.6804E+06
   2057      1     21     74     -0.8862E-01      0.6804E+06
   2058      1     21     75     -0.9608E-01      0.6804E+06
   2059      1     21     76     -0.1089          0.6804E+06
   2060      1     21     77     -0.1181          0.6804E+06
   2061      1     21     78     -0.1232          0.6804E+06
   2062      1     21     79     -0.1322          0.6804E+06
   2063      1     21     80     -0.1400          0.6804E+06
   2064      1     21     81     -0.1672          0.6804E+06
   2065      1     21     82     -0.2166          0.6804E+06
   2066      1     21     83     -0.2055          0.6804E+06
   2067      1     21     84     -0.1453          0.6804E+06
   2068      1     21     85     -0.1382          0.6804E+06
   2069      1     21     86     -0.8910E-01      0.6804E+06
   2070      1     21     87     -0.4775E-01      0.6804E+06
   2071      1     21     88       0.000          0.6804E+06
   2072      1     21     89       0.000          0.6804E+06
   2073      1     21     90      0.1509E-01      0.6804E+06
   2074      1     21     91      0.2457E-01      0.6804E+06
   2075      1     21     92      0.3599E-01      0.6804E+06
   2076      1     21     93      0.4528E-01      0.6804E+06
   2077      1     21     94      0.5461E-01      0.6804E+06
   2078      1     21     95      0.6213E-01      0.6804E+06
   2079      1     21     96      0.6685E-01      0.6804E+06
   2080      1     21     97      0.7109E-01      0.6804E+06
   2081      1     21     98      0.7354E-01      0.6804E+06
   2082      1     21     99      0.7491E-01      0.6804E+06
   2083      1     21    100      0.7587E-01      0.6804E+06
   2084      1     22      1      0.5397          0.6804E+06
   2085      1     22      2      0.5251          0.6804E+06
   2086      1     22      3      0.5058          0.6804E+06
   2087      1     22      4      0.4843          0.6804E+06
   2088      1     22      5      0.4680          0.6804E+06
   2089      1     22      6      0.4561          0.6804E+06
   2090      1     22      7      0.4421          0.6804E+06
   2091      1     22      8      0.4279          0.6804E+06
   2092      1     22      9      0.4141          0.6804E+06
   2093      1     22     10      0.3970          0.6804E+06
   2094      1     22     11      0.3808          0.6804E+06
   2095      1     22     12      0.3618          0.6804E+06
   2096      1     22     13      0.3414          0.6804E+06
   2097      1     22     14      0.3195          0.6804E+06
   2098      1     22     15      0.2880          0.6804E+06
   2099      1     22     16      0.2597          0.6804E+06
   2100      1     22     17      0.2289          0.6804E+06
   2101      1     22     18      0.2005          0.6804E+06
   2102      1     22     19      0.1781          0.6804E+06
   2103      1     22     20      0.1552          0.6804E+06
   2104      1     22     21      0.1331          0.6804E+06
   2105      1     22     22      0.1138          0.6804E+06
   2106      1     22     23      0.9152E-01      0.6804E+06
   2107      1     22     24      0.7177E-01      0.6804E+06
   2108      1     22     25      0.5003E-01      0.6804E+06
   2109      1     22     26      0.3170E-01      0.6804E+06
   2110      1     22     27      0.1332E-01      0.6804E+06
   2111      1     22     28      0.2628E-01      0.6804E+06
   2112      1     22     29       0.000          0.6804E+06
   2113      1     22     30       0.000          0.6804E+06
   2114      1     22     31      0.1089E-01      0.6804E+06
   2115      1     22     32      0.3030E-01      0.6804E+06
   2116      1     22     33      0.4736E-01      0.6804E+06
   2117      1     22     34      0.5962E-01      0.6804E+06
   2118      1     22     35      0.6580E-01      0.6804E+06
   2119      1     22     36      0.6719E-01      0.6804E+06
   2120      1     22     37      0.6602E-01      0.6804E+06
   2121      1     22     38      0.6520E-01      0.6804E+06
   2122      1     22     39      0.6522E-01      0.6804E+06
   2123      1     22     40      0.6541E-01      0.6804E+06
   2124      1     22     58      0.5167E-01      0.6804E+06
   2125      1     22     59      0.4858E-01      0.6804E+06
   2126      1     22     60      0.4324E-01      0.6804E+06
   2127      1     22     61      0.3784E-01      0.6804E+06
   2128      1     22     62      0.3180E-01      0.6804E+06
   2129      1     22     63      0.2760E-01      0.6804E+06
   2130      1     22     64      0.2118E-01      0.6804E+06
   2131      1     22     65      0.1040E-01      0.6804E+06
   2132      1     22     66       0.000          0.6804E+06
   2133      1     22     67       0.000          0.6804E+06
   2134      1     22     68       0.000          0.6804E+06
   2135      1     22     69     -0.5388E-01      0.6804E+06
   2136      1     22     70     -0.7121E-01      0.6804E+06
   2137      1     22     71     -0.8543E-01      0.6804E+06
   2138      1     22     72     -0.9678E-01      0.6804E+06
   2139      1     22     73     -0.1098          0.6804E+06
   2140      1     22     74     -0.1186          0.6804E+06
   2141      1     22     75     -0.1246          0.6804E+06
   2142      1     22     76     -0.1308          0.6804E+06
   2143      1     22     77     -0.1319          0.6804E+06
   2144      1     22     78     -0.1394          0.6804E+06
   2145      1     22     79     -0.1773          0.6804E+06
   2146      1     22     80     -0.2159          0.6804E+06
   2147      1     22     81     -0.1942          0.6804E+06
   2148      1     22     82     -0.1955          0.6804E+06
   2149      1     22     83     -0.1474          0.6804E+06
   2150      1     22     84     -0.1060          0.6804E+06
   2151      1     22     85     -0.6993E-01      0.6804E+06
   2152      1     22     86       0.000          0.6804E+06
   2153      1     22     87       0.000          0.6804E+06
   2154      1     22     88       0.000          0.6804E+06
   2155      1     22     89      0.1211E-01      0.6804E+06
   2156      1     22     90      0.2588E-01      0.6804E+06
   2157      1     22     91      0.3478E-01      0.6804E+06
   2158      1     22     92      0.4396E-01      0.6804E+06
   2159      1     22     93      0.5101E-01      0.6804E+06
   2160      1     22     94      0.5786E-01      0.6804E+06
   2161      1     22     95      0.6308E-01      0.6804E+06
   2162      1     22     96      0.6635E-01      0.6804E+06
   2163      1     22     97      0.6944E-01      0.6804E+06
   2164      1     22     98      0.7140E-01      0.6804E+06
   2165      1     22     99      0.7274E-01      0.6804E+06
   2166      1     22    100      0.7385E-01      0.6804E+06
   2167      1     23      1      0.5520          0.6804E+06
   2168      1     23      2      0.5408          0.6804E+06
   2169      1     23      3      0.5202          0.6804E+06
   2170      1     23      4      0.4966          0.6804E+06
   2171      1     23      5      0.4765          0.6804E+06
   2172      1     23      6      0.4610          0.6804E+06
   2173      1     23      7      0.4440          0.6804E+06
   2174      1     23      8      0.4285          0.6804E+06
   2175      1     23      9      0.4144          0.6804E+06
   2176      1     23     10      0.3974          0.6804E+06
   2177      1     23     11      0.3819          0.6804E+06
   2178      1     23     12      0.3644          0.6804E+06
   2179      1     23     13      0.3474          0.6804E+06
   2180      1     23     14      0.3260          0.6804E+06
   2181      1     23     15      0.2897          0.6804E+06
   2182      1     23     16      0.2587          0.6804E+06
   2183      1     23     17      0.2254          0.6804E+06
   2184      1     23     18      0.1947          0.6804E+06
   2185      1     23     19      0.1708          0.6804E+06
   2186      1     23     20      0.1478          0.6804E+06
   2187      1     23     21      0.1265          0.6804E+06
   2188      1     23     22      0.1084          0.6804E+06
   2189      1     23     23      0.8793E-01      0.6804E+06
   2190      1     23     24      0.7006E-01      0.6804E+06
   2191      1     23     25      0.5140E-01      0.6804E+06
   2192      1     23     26      0.3883E-01      0.6804E+06
   2193      1     23     27      0.2785E-01      0.6804E+06
   2194      1     23     28       0.000          0.6804E+06
   2195      1     23     29       0.000          0.6804E+06
   2196      1     23     30       0.000          0.6804E+06
   2197      1     23     31      0.9357E-02      0.6804E+06
   2198      1     23     32      0.2478E-01      0.6804E+06
   2199      1     23     33      0.4210E-01      0.6804E+06
   2200      1     23     34      0.5482E-01      0.6804E+06
   2201      1     23     35      0.6166E-01      0.6804E+06
   2202      1     23     36      0.6455E-01      0.6804E+06
   2203      1     23     37      0.6526E-01      0.6804E+06
   2204      1     23     38      0.6508E-01      0.6804E+06
   2205      1     23     59      0.3087E-01      0.6804E+06
   2206      1     23     60      0.2388E-01      0.6804E+06
   2207      1     23     61      0.1734E-01      0.6804E+06
   2208      1     23     62      0.9759E-02      0.6804E+06
   2209      1     23     63      0.3691E-04      0.6804E+06
   2210      1     23     64       0.000          0.6804E+06
   2211      1     23     65       0.000          0.6804E+06
   2212      1     23     66       0.000          0.6804E+06
   2213      1     23     67     -0.6429E-01      0.6804E+06
   2214      1     23     68     -0.7789E-01      0.6804E+06
   2215      1     23     69     -0.8895E-01      0.6804E+06
   2216      1     23     70     -0.9971E-01      0.6804E+06
   2217      1     23     71     -0.1150          0.6804E+06
   2218      1     23     72     -0.1293          0.6804E+06
   2219      1     23     73     -0.1382          0.6804E+06
   2220      1     23     74     -0.1395          0.6804E+06
   2221      1     23     75     -0.1378          0.6804E+06
   2222      1     23     76     -0.1377          0.6804E+06
   2223      1     23     77     -0.1564          0.6804E+06
   2224      1     23     78     -0.1950          0.6804E+06
   2225      1     23     79     -0.2110          0.6804E+06
   2226      1     23     80     -0.1932          0.6804E+06
   2227      1     23     81     -0.1496          0.6804E+06
   2228      1     23     82     -0.1241          0.6804E+06
   2229      1     23     83     -0.1013          0.6804E+06
   2230      1     23     84     -0.5873E-01      0.6804E+06
   2231      1     23     85       0.000          0.6804E+06
   2232      1     23     86       0.000          0.6804E+06
   2233      1     23     87       0.000          0.6804E+06
   2234      1     23     88      0.6357E-02      0.6804E+06
   2235      1     23     89      0.2101E-01      0.6804E+06
   2236      1     23     90      0.3282E-01      0.6804E+06
   2237      1     23     91      0.4095E-01      0.6804E+06
   2238      1     23     92      0.4867E-01      0.6804E+06
   2239      1     23     93      0.5437E-01      0.6804E+06
   2240      1     23     94      0.5959E-01      0.6804E+06
   2241      1     23     95      0.6295E-01      0.6804E+06
   2242      1     23     96      0.6479E-01      0.6804E+06
   2243      1     23     97      0.6647E-01      0.6804E+06
   2244      1     23     98      0.6781E-01      0.6804E+06
   2245      1     23     99      0.6939E-01      0.6804E+06
   2246      1     23    100      0.7081E-01      0.6804E+06
   2247      1     24      1      0.5624          0.6804E+06
   2248      1     24      2      0.5533          0.6804E+06
   2249      1     24      3      0.5331          0.6804E+06
   2250      1     24      4      0.5089          0.6804E+06
   2251      1     24      5      0.4865          0.6804E+06
   2252      1     24      6      0.4684          0.6804E+06
   2253      1     24      7      0.4489          0.6804E+06
   2254      1     24      8      0.4311          0.6804E+06
   2255      1     24      9      0.4154          0.6804E+06
   2256      1     24     10      0.3970          0.6804E+06
   2257      1     24     11      0.3804          0.6804E+06
   2258      1     24     12      0.3613          0.6804E+06
   2259      1     24     13      0.3411          0.6804E+06
   2260      1     24     14      0.3183          0.6804E+06
   2261      1     24     15      0.2838          0.6804E+06
   2262      1     24     16      0.2530          0.6804E+06
   2263      1     24     17      0.2191          0.6804E+06
   2264      1     24     18      0.1875          0.6804E+06
   2265      1     24     19      0.1630          0.6804E+06
   2266      1     24     20      0.1408          0.6804E+06
   2267      1     24     21      0.1210          0.6804E+06
   2268      1     24     22      0.1045          0.6804E+06
   2269      1     24     23      0.8624E-01      0.6804E+06
   2270      1     24     24      0.7046E-01      0.6804E+06
   2271      1     24     25      0.5300E-01      0.6804E+06
   2272      1     24     26      0.3452E-01      0.6804E+06
   2273      1     24     27      0.1671E-01      0.6804E+06
   2274      1     24     28       0.000          0.6804E+06
   2275      1     24     29       0.000          0.6804E+06
   2276      1     24     30       0.000          0.6804E+06
   2277      1     24     31      0.8186E-02      0.6804E+06
   2278      1     24     32      0.2327E-01      0.6804E+06
   2279      1     24     33      0.3770E-01      0.6804E+06
   2280      1     24     34      0.4867E-01      0.6804E+06
   2281      1     24     35      0.5470E-01      0.6804E+06
   2282      1     24     36      0.5938E-01      0.6804E+06
   2283      1     24     37      0.6178E-01      0.6804E+06
   2284      1     24     59      0.2941E-02      0.6804E+06
   2285      1     24     60       0.000          0.6804E+06
   2286      1     24     61       0.000          0.6804E+06
   2287      1     24     62       0.000          0.6804E+06
   2288      1     24     63       0.000          0.6804E+06
   2289      1     24     64     -0.6944E-01      0.6804E+06
   2290      1     24     65     -0.8212E-01      0.6804E+06
   2291      1     24     66     -0.9335E-01      0.6804E+06
   2292      1     24     67     -0.1019          0.6804E+06
   2293      1     24     68     -0.1167          0.6804E+06
   2294      1     24     69     -0.1275          0.6804E+06
   2295      1     24     70     -0.1398          0.6804E+06
   2296      1     24     71     -0.1495          0.6804E+06
   2297      1     24     72     -0.1539          0.6804E+06
   2298      1     24     73     -0.1523          0.6804E+06
   2299      1     24     74     -0.1554          0.6804E+06
   2300      1     24     75     -0.1661          0.6804E+06
   2301      1     24     76     -0.1933          0.6804E+06
   2302      1     24     77     -0.1703          0.6804E+06
   2303      1     24     78     -0.1617          0.6804E+06
   2304      1     24     79     -0.1706          0.6804E+06
   2305      1     24     80     -0.1427          0.6804E+06
   2306      1     24     81     -0.1124          0.6804E+06
   2307      1     24     82     -0.9734E-01      0.6804E+06
   2308      1     24     83     -0.6116E-01      0.6804E+06
   2309      1     24     84       0.000          0.6804E+06
   2310      1     24     85       0.000          0.6804E+06
   2311      1     24     86       0.000          0.6804E+06
   2312      1     24     87      0.2322E-02      0.6804E+06
   2313      1     24     88      0.1604E-01      0.6804E+06
   2314      1     24     89      0.2915E-01      0.6804E+06
   2315      1     24     90      0.3942E-01      0.6804E+06
   2316      1     24     91      0.4656E-01      0.6804E+06
   2317      1     24     92      0.5278E-01      0.6804E+06
   2318      1     24     93      0.5706E-01      0.6804E+06
   2319      1     24     94      0.6060E-01      0.6804E+06
   2320      1     24     95      0.6215E-01      0.6804E+06
   2321      1     24     96      0.6236E-01      0.6804E+06
   2322      1     24     97      0.6226E-01      0.6804E+06
   2323      1     24     98      0.6281E-01      0.6804E+06
   2324      1     24     99      0.6511E-01      0.6804E+06
   2325      1     24    100      0.6697E-01      0.6804E+06
   2326      1     25      1      0.5653          0.6804E+06
   2327      1     25      2      0.5549          0.6804E+06
   2328      1     25      3      0.5380          0.6804E+06
   2329      1     25      4      0.5159          0.6804E+06
   2330      1     25      5      0.4937          0.6804E+06
   2331      1     25      6      0.4749          0.6804E+06
   2332      1     25      7      0.4542          0.6804E+06
   2333      1     25      8      0.4340          0.6804E+06
   2334      1     25      9      0.4163          0.6804E+06
   2335      1     25     10      0.3957          0.6804E+06
   2336      1     25     11      0.3771          0.6804E+06
   2337      1     25     12      0.3553          0.6804E+06
   2338      1     25     13      0.3314          0.6804E+06
   2339      1     25     14      0.3072          0.6804E+06
   2340      1     25     15      0.2747          0.6804E+06
   2341      1     25     16      0.2452          0.6804E+06
   2342      1     25     17      0.2125          0.6804E+06
   2343      1     25     18      0.1819          0.6804E+06
   2344      1     25     19      0.1584          0.6804E+06
   2345      1     25     20      0.1368          0.6804E+06
   2346      1     25     21      0.1181          0.6804E+06
   2347      1     25     22      0.1030          0.6804E+06
   2348      1     25     23      0.8645E-01      0.6804E+06
   2349      1     25     24      0.7199E-01      0.6804E+06
   2350      1     25     25      0.5572E-01      0.6804E+06
   2351      1     25     26      0.3935E-01      0.6804E+06
   2352      1     25     27      0.2706E-01      0.6804E+06
   2353      1     25     28      0.1401E-01      0.6804E+06
   2354      1     25     29       0.000          0.6804E+06
   2355      1     25     30       0.000          0.6804E+06
   2356      1     25     31       0.000          0.6804E+06
   2357      1     25     32      0.1571E-01      0.6804E+06
   2358      1     25     33      0.3252E-01      0.6804E+06
   2359      1     25     34      0.3917E-01      0.6804E+06
   2360      1     25     35      0.4461E-01      0.6804E+06
   2361      1     25     36      0.5089E-01      0.6804E+06
   2362      1     25     60     -0.5845E-01      0.6804E+06
   2363      1     25     61     -0.6980E-01      0.6804E+06
   2364      1     25     62     -0.8115E-01      0.6804E+06
   2365      1     25     63     -0.9852E-01      0.6804E+06
   2366      1     25     64     -0.1112          0.6804E+06
   2367      1     25     65     -0.1245          0.6804E+06
   2368      1     25     66     -0.1429          0.6804E+06
   2369      1     25     67     -0.1540          0.6804E+06
   2370      1     25     68     -0.1563          0.6804E+06
   2371      1     25     69     -0.1533          0.6804E+06
   2372      1     25     70     -0.1554          0.6804E+06
   2373      1     25     71     -0.1575          0.6804E+06
   2374      1     25     72     -0.1625          0.6804E+06
   2375      1     25     73     -0.1936          0.6804E+06
   2376      1     25     74     -0.2176          0.6804E+06
   2377      1     25     75     -0.2075          0.6804E+06
   2378      1     25     76     -0.1673          0.6804E+06
   2379      1     25     77     -0.1284          0.6804E+06
   2380      1     25     78     -0.1172          0.6804E+06
   2381      1     25     79     -0.1462          0.6804E+06
   2382      1     25     80     -0.1218          0.6804E+06
   2383      1     25     81     -0.9369E-01      0.6804E+06
   2384      1     25     82     -0.6169E-01      0.6804E+06
   2385      1     25     83       0.000          0.6804E+06
   2386      1     25     84       0.000          0.6804E+06
   2387      1     25     85       0.000          0.6804E+06
   2388      1     25     86       0.000          0.6804E+06
   2389      1     25     87      0.1247E-01      0.6804E+06
   2390      1     25     88      0.2401E-01      0.6804E+06
   2391      1     25     89      0.3567E-01      0.6804E+06
   2392      1     25     90      0.4502E-01      0.6804E+06
   2393      1     25     91      0.5082E-01      0.6804E+06
   2394      1     25     92      0.5601E-01      0.6804E+06
   2395      1     25     93      0.5913E-01      0.6804E+06
   2396      1     25     94      0.6110E-01      0.6804E+06
   2397      1     25     95      0.6148E-01      0.6804E+06
   2398      1     25     96      0.6053E-01      0.6804E+06
   2399      1     25     97      0.5908E-01      0.6804E+06
   2400      1     25     98      0.5901E-01      0.6804E+06
   2401      1     25     99      0.6198E-01      0.6804E+06
   2402      1     25    100      0.6405E-01      0.6804E+06
   2403      1     26      1      0.5662          0.6804E+06
   2404      1     26      2      0.5547          0.6804E+06
   2405      1     26      3      0.5400          0.6804E+06
   2406      1     26      4      0.5203          0.6804E+06
   2407      1     26      5      0.4994          0.6804E+06
   2408      1     26      6      0.4808          0.6804E+06
   2409      1     26      7      0.4592          0.6804E+06
   2410      1     26      8      0.4370          0.6804E+06
   2411      1     26      9      0.4169          0.6804E+06
   2412      1     26     10      0.3932          0.6804E+06
   2413      1     26     11      0.3718          0.6804E+06
   2414      1     26     12      0.3464          0.6804E+06
   2415      1     26     13      0.3195          0.6804E+06
   2416      1     26     14      0.2940          0.6804E+06
   2417      1     26     15      0.2625          0.6804E+06
   2418      1     26     16      0.2345          0.6804E+06
   2419      1     26     17      0.2036          0.6804E+06
   2420      1     26     18      0.1750          0.6804E+06
   2421      1     26     19      0.1534          0.6804E+06
   2422      1     26     20      0.1329          0.6804E+06
   2423      1     26     21      0.1157          0.6804E+06
   2424      1     26     22      0.1024          0.6804E+06
   2425      1     26     23      0.8794E-01      0.6804E+06
   2426      1     26     24      0.7524E-01      0.6804E+06
   2427      1     26     25      0.6133E-01      0.6804E+06
   2428      1     26     26      0.4701E-01      0.6804E+06
   2429      1     26     27      0.3422E-01      0.6804E+06
   2430      1     26     28      0.2046E-01      0.6804E+06
   2431      1     26     29      0.3216E-02      0.6804E+06
   2432      1     26     30      0.6492E-02      0.6804E+06
   2433      1     26     31      0.1430E-01      0.6804E+06
   2434      1     26     32      0.1045E-01      0.6804E+06
   2435      1     26     33      0.1367E-01      0.6804E+06
   2436      1     26     34      0.2058E-01      0.6804E+06
   2437      1     26     35      0.2278E-01      0.6804E+06
   2438      1     26     36      0.3259E-01      0.6804E+06
   2439      1     26     60     -0.1136          0.6804E+06
   2440      1     26     61     -0.1314          0.6804E+06
   2441      1     26     62     -0.1392          0.6804E+06
   2442      1     26     63     -0.1579          0.6804E+06
   2443      1     26     64     -0.1656          0.6804E+06
   2444      1     26     65     -0.1685          0.6804E+06
   2445      1     26     66     -0.1647          0.6804E+06
   2446      1     26     67     -0.1576          0.6804E+06
   2447      1     26     68     -0.1543          0.6804E+06
   2448      1     26     69     -0.1562          0.6804E+06
   2449      1     26     70     -0.1770          0.6804E+06
   2450      1     26     71     -0.2020          0.6804E+06
   2451      1     26     72     -0.2427          0.6804E+06
   2452      1     26     73     -0.2004          0.6804E+06
   2453      1     26     74     -0.1797          0.6804E+06
   2454      1     26     75     -0.1721          0.6804E+06
   2455      1     26     76     -0.1524          0.6804E+06
   2456      1     26     77     -0.1368          0.6804E+06
   2457      1     26     78     -0.1045          0.6804E+06
   2458      1     26     79     -0.1009          0.6804E+06
   2459      1     26     80     -0.8650E-01      0.6804E+06
   2460      1     26     81     -0.5502E-01      0.6804E+06
   2461      1     26     82       0.000          0.6804E+06
   2462      1     26     83       0.000          0.6804E+06
   2463      1     26     84       0.000          0.6804E+06
   2464      1     26     85      0.3170E-02      0.6804E+06
   2465      1     26     86      0.1374E-01      0.6804E+06
   2466      1     26     87      0.2449E-01      0.6804E+06
   2467      1     26     88      0.3370E-01      0.6804E+06
   2468      1     26     89      0.4341E-01      0.6804E+06
   2469      1     26     90      0.5110E-01      0.6804E+06
   2470      1     26     91      0.5584E-01      0.6804E+06
   2471      1     26     92      0.5959E-01      0.6804E+06
   2472      1     26     93      0.6149E-01      0.6804E+06
   2473      1     26     94      0.6230E-01      0.6804E+06
   2474      1     26     95      0.6188E-01      0.6804E+06
   2475      1     26     96      0.6060E-01      0.6804E+06
   2476      1     26     97      0.5918E-01      0.6804E+06
   2477      1     26     98      0.5893E-01      0.6804E+06
   2478      1     26     99      0.6070E-01      0.6804E+06
   2479      1     26    100      0.6231E-01      0.6804E+06
   2480      1     27      1      0.5670          0.6804E+06
   2481      1     27      2      0.5548          0.6804E+06
   2482      1     27      3      0.5411          0.6804E+06
   2483      1     27      4      0.5230          0.6804E+06
   2484      1     27      5      0.5033          0.6804E+06
   2485      1     27      6      0.4853          0.6804E+06
   2486      1     27      7      0.4633          0.6804E+06
   2487      1     27      8      0.4393          0.6804E+06
   2488      1     27      9      0.4168          0.6804E+06
   2489      1     27     10      0.3899          0.6804E+06
   2490      1     27     11      0.3657          0.6804E+06
   2491      1     27     12      0.3373          0.6804E+06
   2492      1     27     13      0.3080          0.6804E+06
   2493      1     27     14      0.2813          0.6804E+06
   2494      1     27     15      0.2500          0.6804E+06
   2495      1     27     16      0.2230          0.6804E+06
   2496      1     27     17      0.1934          0.6804E+06
   2497      1     27     18      0.1666          0.6804E+06
   2498      1     27     19      0.1470          0.6804E+06
   2499      1     27     20      0.1288          0.6804E+06
   2500      1     27     21      0.1138          0.6804E+06
   2501      1     27     22      0.1025          0.6804E+06
   2502      1     27     23      0.9048E-01      0.6804E+06
   2503      1     27     24      0.7985E-01      0.6804E+06
   2504      1     27     25      0.6826E-01      0.6804E+06
   2505      1     27     26      0.5537E-01      0.6804E+06
   2506      1     27     27      0.4182E-01      0.6804E+06
   2507      1     27     28      0.2446E-01      0.6804E+06
   2508      1     27     29      0.7162E-02      0.6804E+06
   2509      1     27     30      0.1566E-02      0.6804E+06
   2510      1     27     31       0.000          0.6804E+06
   2511      1     27     32       0.000          0.6804E+06
   2512      1     27     33      0.7411E-02      0.6804E+06
   2513      1     27     34      0.1019E-01      0.6804E+06
   2514      1     27     35      0.9729E-02      0.6804E+06
   2515      1     27     60     -0.1669          0.6804E+06
   2516      1     27     61     -0.1695          0.6804E+06
   2517      1     27     62     -0.1695          0.6804E+06
   2518      1     27     63     -0.1640          0.6804E+06
   2519      1     27     64     -0.1552          0.6804E+06
   2520      1     27     65     -0.1487          0.6804E+06
   2521      1     27     66     -0.1467          0.6804E+06
   2522      1     27     67     -0.1566          0.6804E+06
   2523      1     27     68     -0.1705          0.6804E+06
   2524      1     27     69     -0.1952          0.6804E+06
   2525      1     27     70     -0.2166          0.6804E+06
   2526      1     27     71     -0.1907          0.6804E+06
   2527      1     27     72     -0.1551          0.6804E+06
   2528      1     27     73     -0.1254          0.6804E+06
   2529      1     27     74     -0.1171          0.6804E+06
   2530      1     27     75     -0.1069          0.6804E+06
   2531      1     27     76     -0.1040          0.6804E+06
   2532      1     27     77     -0.1249          0.6804E+06
   2533      1     27     78     -0.1072          0.6804E+06
   2534      1     27     79     -0.8735E-01      0.6804E+06
   2535      1     27     80       0.000          0.6804E+06
   2536      1     27     81       0.000          0.6804E+06
   2537      1     27     82       0.000          0.6804E+06
   2538      1     27     83       0.000          0.6804E+06
   2539      1     27     84      0.8255E-02      0.6804E+06
   2540      1     27     85      0.1729E-01      0.6804E+06
   2541      1     27     86      0.2705E-01      0.6804E+06
   2542      1     27     87      0.3572E-01      0.6804E+06
   2543      1     27     88      0.4322E-01      0.6804E+06
   2544      1     27     89      0.5101E-01      0.6804E+06
   2545      1     27     90      0.5687E-01      0.6804E+06
   2546      1     27     91      0.6061E-01      0.6804E+06
   2547      1     27     92      0.6297E-01      0.6804E+06
   2548      1     27     93      0.6383E-01      0.6804E+06
   2549      1     27     94      0.6386E-01      0.6804E+06
   2550      1     27     95      0.6304E-01      0.6804E+06
   2551      1     27     96      0.6184E-01      0.6804E+06
   2552      1     27     97      0.6064E-01      0.6804E+06
   2553      1     27     98      0.6021E-01      0.6804E+06
   2554      1     27     99      0.6093E-01      0.6804E+06
   2555      1     27    100      0.6193E-01      0.6804E+06
   2556      1     28      1      0.5681          0.6804E+06
   2557      1     28      2      0.5553          0.6804E+06
   2558      1     28      3      0.5419          0.6804E+06
   2559      1     28      4      0.5244          0.6804E+06
   2560      1     28      5      0.5055          0.6804E+06
   2561      1     28      6      0.4880          0.6804E+06
   2562      1     28      7      0.4664          0.6804E+06
   2563      1     28      8      0.4407          0.6804E+06
   2564      1     28      9      0.4160          0.6804E+06
   2565      1     28     10      0.3865          0.6804E+06
   2566      1     28     11      0.3601          0.6804E+06
   2567      1     28     12      0.3294          0.6804E+06
   2568      1     28     13      0.2984          0.6804E+06
   2569      1     28     14      0.2709          0.6804E+06
   2570      1     28     15      0.2394          0.6804E+06
   2571      1     28     16      0.2126          0.6804E+06
   2572      1     28     17      0.1836          0.6804E+06
   2573      1     28     18      0.1579          0.6804E+06
   2574      1     28     19      0.1401          0.6804E+06
   2575      1     28     20      0.1246          0.6804E+06
   2576      1     28     21      0.1124          0.6804E+06
   2577      1     28     22      0.1032          0.6804E+06
   2578      1     28     23      0.9354E-01      0.6804E+06
   2579      1     28     24      0.8489E-01      0.6804E+06
   2580      1     28     25      0.7478E-01      0.6804E+06
   2581      1     28     26      0.6319E-01      0.6804E+06
   2582      1     28     27      0.5140E-01      0.6804E+06
   2583      1     28     28      0.3795E-01      0.6804E+06
   2584      1     28     29      0.2614E-01      0.6804E+06
   2585      1     28     30      0.1001E-01      0.6804E+06
   2586      1     28     31       0.000          0.6804E+06
   2587      1     28     32       0.000          0.6804E+06
   2588      1     28     33     -0.2370E-01      0.6804E+06
   2589      1     28     34     -0.2966E-01      0.6804E+06
   2590      1     28     35     -0.3834E-01      0.6804E+06
   2591      1     28     60     -0.1601          0.6804E+06
   2592      1     28     61     -0.1565          0.6804E+06
   2593      1     28     62     -0.1534          0.6804E+06
   2594      1     28     63     -0.1489          0.6804E+06
   2595      1     28     64     -0.1477          0.6804E+06
   2596      1     28     65     -0.1612          0.6804E+06
   2597      1     28     66     -0.1845          0.6804E+06
   2598      1     28     67     -0.2015          0.6804E+06
   2599      1     28     68     -0.1858          0.6804E+06
   2600      1     28     69     -0.1682          0.6804E+06
   2601      1     28     70     -0.1525          0.6804E+06
   2602      1     28     71     -0.1304          0.6804E+06
   2603      1     28     72     -0.1094          0.6804E+06
   2604      1     28     73     -0.9369E-01      0.6804E+06
   2605      1     28     74     -0.8945E-01      0.6804E+06
   2606      1     28     75     -0.8233E-01      0.6804E+06
   2607      1     28     76     -0.6371E-01      0.6804E+06
   2608      1     28     77     -0.8235E-01      0.6804E+06
   2609      1     28     78       0.000          0.6804E+06
   2610      1     28     79       0.000          0.6804E+06
   2611      1     28     80       0.000          0.6804E+06
   2612      1     28     81       0.000          0.6804E+06
   2613      1     28     82       0.000          0.6804E+06
   2614      1     28     83      0.4225E-02      0.6804E+06
   2615      1     28     84      0.1971E-01      0.6804E+06
   2616      1     28     85      0.2828E-01      0.6804E+06
   2617      1     28     86      0.3682E-01      0.6804E+06
   2618      1     28     87      0.4423E-01      0.6804E+06
   2619      1     28     88      0.5042E-01      0.6804E+06
   2620      1     28     89      0.5677E-01      0.6804E+06
   2621      1     28     90      0.6140E-01      0.6804E+06
   2622      1     28     91      0.6408E-01      0.6804E+06
   2623      1     28     92      0.6547E-01      0.6804E+06
   2624      1     28     93      0.6569E-01      0.6804E+06
   2625      1     28     94      0.6522E-01      0.6804E+06
   2626      1     28     95      0.6421E-01      0.6804E+06
   2627      1     28     96      0.6312E-01      0.6804E+06
   2628      1     28     97      0.6201E-01      0.6804E+06
   2629      1     28     98      0.6146E-01      0.6804E+06
   2630      1     28     99      0.6161E-01      0.6804E+06
   2631      1     28    100      0.6221E-01      0.6804E+06
   2632      1     29      1      0.5700          0.6804E+06
   2633      1     29      2      0.5563          0.6804E+06
   2634      1     29      3      0.5425          0.6804E+06
   2635      1     29      4      0.5251          0.6804E+06
   2636      1     29      5      0.5063          0.6804E+06
   2637      1     29      6      0.4890          0.6804E+06
   2638      1     29      7      0.4675          0.6804E+06
   2639      1     29      8      0.4403          0.6804E+06
   2640      1     29      9      0.4137          0.6804E+06
   2641      1     29     10      0.3820          0.6804E+06
   2642      1     29     11      0.3536          0.6804E+06
   2643      1     29     12      0.3207          0.6804E+06
   2644      1     29     13      0.2882          0.6804E+06
   2645      1     29     14      0.2600          0.6804E+06
   2646      1     29     15      0.2281          0.6804E+06
   2647      1     29     16      0.2013          0.6804E+06
   2648      1     29     17      0.1726          0.6804E+06
   2649      1     29     18      0.1479          0.6804E+06
   2650      1     29     19      0.1323          0.6804E+06
   2651      1     29     20      0.1201          0.6804E+06
   2652      1     29     21      0.1111          0.6804E+06
   2653      1     29     22      0.1046          0.6804E+06
   2654      1     29     23      0.9788E-01      0.6804E+06
   2655      1     29     24      0.9167E-01      0.6804E+06
   2656      1     29     25      0.8335E-01      0.6804E+06
   2657      1     29     26      0.7366E-01      0.6804E+06
   2658      1     29     27      0.6466E-01      0.6804E+06
   2659      1     29     28      0.5424E-01      0.6804E+06
   2660      1     29     29      0.4269E-01      0.6804E+06
   2661      1     29     30      0.3068E-01      0.6804E+06
   2662      1     29     31      0.1058E-01      0.6804E+06
   2663      1     29     32     -0.2452E-01      0.6804E+06
   2664      1     29     33     -0.6142E-01      0.6804E+06
   2665      1     29     34     -0.1176          0.6804E+06
   2666      1     29     60     -0.1426          0.6804E+06
   2667      1     29     61     -0.1485          0.6804E+06
   2668      1     29     62     -0.1593          0.6804E+06
   2669      1     29     63     -0.1783          0.6804E+06
   2670      1     29     64     -0.1805          0.6804E+06
   2671      1     29     65     -0.1835          0.6804E+06
   2672      1     29     66     -0.1853          0.6804E+06
   2673      1     29     67     -0.1685          0.6804E+06
   2674      1     29     68     -0.1458          0.6804E+06
   2675      1     29     69     -0.1241          0.6804E+06
   2676      1     29     70     -0.1134          0.6804E+06
   2677      1     29     71     -0.1011          0.6804E+06
   2678      1     29     72     -0.7897E-01      0.6804E+06
   2679      1     29     73     -0.6220E-01      0.6804E+06
   2680      1     29     74     -0.6153E-01      0.6804E+06
   2681      1     29     75     -0.5850E-01      0.6804E+06
   2682      1     29     76       0.000          0.6804E+06
   2683      1     29     77       0.000          0.6804E+06
   2684      1     29     78       0.000          0.6804E+06
   2685      1     29     79       0.000          0.6804E+06
   2686      1     29     80       0.000          0.6804E+06
   2687      1     29     81       0.000          0.6804E+06
   2688      1     29     82       0.000          0.6804E+06
   2689      1     29     83      0.1538E-01      0.6804E+06
   2690      1     29     84      0.2834E-01      0.6804E+06
   2691      1     29     85      0.3735E-01      0.6804E+06
   2692      1     29     86      0.4524E-01      0.6804E+06
   2693      1     29     87      0.5186E-01      0.6804E+06
   2694      1     29     88      0.5690E-01      0.6804E+06
   2695      1     29     89      0.6171E-01      0.6804E+06
   2696      1     29     90      0.6499E-01      0.6804E+06
   2697      1     29     91      0.6662E-01      0.6804E+06
   2698      1     29     92      0.6732E-01      0.6804E+06
   2699      1     29     93      0.6720E-01      0.6804E+06
   2700      1     29     94      0.6645E-01      0.6804E+06
   2701      1     29     95      0.6533E-01      0.6804E+06
   2702      1     29     96      0.6422E-01      0.6804E+06
   2703      1     29     97      0.6315E-01      0.6804E+06
   2704      1     29     98      0.6261E-01      0.6804E+06
   2705      1     29     99      0.6248E-01      0.6804E+06
   2706      1     29    100      0.6280E-01      0.6804E+06
   2707      1     30      1      0.5723          0.6804E+06
   2708      1     30      2      0.5574          0.6804E+06
   2709      1     30      3      0.5428          0.6804E+06
   2710      1     30      4      0.5247          0.6804E+06
   2711      1     30      5      0.5052          0.6804E+06
   2712      1     30      6      0.4870          0.6804E+06
   2713      1     30      7      0.4642          0.6804E+06
   2714      1     30      8      0.4366          0.6804E+06
   2715      1     30      9      0.4097          0.6804E+06
   2716      1     30     10      0.3771          0.6804E+06
   2717      1     30     11      0.3475          0.6804E+06
   2718      1     30     12      0.3131          0.6804E+06
   2719      1     30     13      0.2793          0.6804E+06
   2720      1     30     14      0.2507          0.6804E+06
   2721      1     30     15      0.2184          0.6804E+06
   2722      1     30     16      0.1913          0.6804E+06
   2723      1     30     17      0.1628          0.6804E+06
   2724      1     30     18      0.1394          0.6804E+06
   2725      1     30     19      0.1259          0.6804E+06
   2726      1     30     20      0.1165          0.6804E+06
   2727      1     30     21      0.1105          0.6804E+06
   2728      1     30     22      0.1066          0.6804E+06
   2729      1     30     23      0.1026          0.6804E+06
   2730      1     30     24      0.9869E-01      0.6804E+06
   2731      1     30     25      0.9259E-01      0.6804E+06
   2732      1     30     26      0.8508E-01      0.6804E+06
   2733      1     30     27      0.7842E-01      0.6804E+06
   2734      1     30     28      0.6991E-01      0.6804E+06
   2735      1     30     29      0.5887E-01      0.6804E+06
   2736      1     30     30      0.4643E-01      0.6804E+06
   2737      1     30     31      0.2974E-01      0.6804E+06
   2738      1     30     32      0.5549E-02      0.6804E+06
   2739      1     30     33     -0.8317E-01      0.6804E+06
   2740      1     30     60     -0.1572          0.6804E+06
   2741      1     30     61     -0.1861          0.6804E+06
   2742      1     30     62     -0.1805          0.6804E+06
   2743      1     30     63     -0.1792          0.6804E+06
   2744      1     30     64     -0.1654          0.6804E+06
   2745      1     30     65     -0.1576          0.6804E+06
   2746      1     30     66     -0.1482          0.6804E+06
   2747      1     30     67     -0.1200          0.6804E+06
   2748      1     30     68     -0.1172          0.6804E+06
   2749      1     30     69     -0.1047          0.6804E+06
   2750      1     30     70     -0.8185E-01      0.6804E+06
   2751      1     30     71     -0.6986E-01      0.6804E+06
   2752      1     30     72     -0.6020E-01      0.6804E+06
   2753      1     30     73     -0.5015E-01      0.6804E+06
   2754      1     30     74       0.000          0.6804E+06
   2755      1     30     75       0.000          0.6804E+06
   2756      1     30     76       0.000          0.6804E+06
   2757      1     30     77       0.000          0.6804E+06
   2758      1     30     78       0.000          0.6804E+06
   2759      1     30     79       0.000          0.6804E+06
   2760      1     30     80       0.000          0.6804E+06
   2761      1     30     81       0.000          0.6804E+06
   2762      1     30     82      0.9039E-02      0.6804E+06
   2763      1     30     83      0.2266E-01      0.6804E+06
   2764      1     30     84      0.3518E-01      0.6804E+06
   2765      1     30     85      0.4412E-01      0.6804E+06
   2766      1     30     86      0.5162E-01      0.6804E+06
   2767      1     30     87      0.5758E-01      0.6804E+06
   2768      1     30     88      0.6165E-01      0.6804E+06
   2769      1     30     89      0.6516E-01      0.6804E+06
   2770      1     30     90      0.6738E-01      0.6804E+06
   2771      1     30     91      0.6840E-01      0.6804E+06
   2772      1     30     92      0.6858E-01      0.6804E+06
   2773      1     30     93      0.6810E-01      0.6804E+06
   2774      1     30     94      0.6714E-01      0.6804E+06
   2775      1     30     95      0.6598E-01      0.6804E+06
   2776      1     30     96      0.6482E-01      0.6804E+06
   2777      1     30     97      0.6374E-01      0.6804E+06
   2778      1     30     98      0.6330E-01      0.6804E+06
   2779      1     30     99      0.6322E-01      0.6804E+06
   2780      1     30    100      0.6326E-01      0.6804E+06
   2781      1     31      1      0.5747          0.6804E+06
   2782      1     31      2      0.5586          0.6804E+06
   2783      1     31      3      0.5430          0.6804E+06
   2784      1     31      4      0.5236          0.6804E+06
   2785      1     31      5      0.5029          0.6804E+06
   2786      1     31      6      0.4835          0.6804E+06
   2787      1     31      7      0.4593          0.6804E+06
   2788      1     31      8      0.4317          0.6804E+06
   2789      1     31      9      0.4053          0.6804E+06
   2790      1     31     10      0.3730          0.6804E+06
   2791      1     31     11      0.3432          0.6804E+06
   2792      1     31     12      0.3081          0.6804E+06
   2793      1     31     13      0.2735          0.6804E+06
   2794      1     31     14      0.2447          0.6804E+06
   2795      1     31     15      0.2117          0.6804E+06
   2796      1     31     16      0.1840          0.6804E+06
   2797      1     31     17      0.1552          0.6804E+06
   2798      1     31     18      0.1327          0.6804E+06
   2799      1     31     19      0.1212          0.6804E+06
   2800      1     31     20      0.1142          0.6804E+06
   2801      1     31     21      0.1107          0.6804E+06
   2802      1     31     22      0.1090          0.6804E+06
   2803      1     31     23      0.1072          0.6804E+06
   2804      1     31     24      0.1047          0.6804E+06
   2805      1     31     25      0.1002          0.6804E+06
   2806      1     31     26      0.9431E-01      0.6804E+06
   2807      1     31     27      0.8889E-01      0.6804E+06
   2808      1     31     28      0.8146E-01      0.6804E+06
   2809      1     31     29      0.7090E-01      0.6804E+06
   2810      1     31     30      0.5776E-01      0.6804E+06
   2811      1     31     31      0.3528E-01      0.6804E+06
   2812      1     31     32      0.6134E-02      0.6804E+06
   2813      1     31     33     -0.9723E-01      0.6804E+06
   2814      1     31     60     -0.1393          0.6804E+06
   2815      1     31     61     -0.1466          0.6804E+06
   2816      1     31     62     -0.1492          0.6804E+06
   2817      1     31     63     -0.1516          0.6804E+06
   2818      1     31     64     -0.1403          0.6804E+06
   2819      1     31     65     -0.1504          0.6804E+06
   2820      1     31     66     -0.1346          0.6804E+06
   2821      1     31     67     -0.9755E-01      0.6804E+06
   2822      1     31     68     -0.9511E-01      0.6804E+06
   2823      1     31     69     -0.8620E-01      0.6804E+06
   2824      1     31     70     -0.6211E-01      0.6804E+06
   2825      1     31     71     -0.5246E-01      0.6804E+06
   2826      1     31     72       0.000          0.6804E+06
   2827      1     31     73       0.000          0.6804E+06
   2828      1     31     74       0.000          0.6804E+06
   2829      1     31     75       0.000          0.6804E+06
   2830      1     31     76       0.000          0.6804E+06
   2831      1     31     77       0.000          0.6804E+06
   2832      1     31     78       0.000          0.6804E+06
   2833      1     31     79       0.000          0.6804E+06
   2834      1     31     80       0.000          0.6804E+06
   2835      1     31     81       0.000          0.6804E+06
   2836      1     31     82      0.1615E-01      0.6804E+06
   2837      1     31     83      0.2860E-01      0.6804E+06
   2838      1     31     84      0.4041E-01      0.6804E+06
   2839      1     31     85      0.4886E-01      0.6804E+06
   2840      1     31     86      0.5607E-01      0.6804E+06
   2841      1     31     87      0.6131E-01      0.6804E+06
   2842      1     31     88      0.6460E-01      0.6804E+06
   2843      1     31     89      0.6714E-01      0.6804E+06
   2844      1     31     90      0.6860E-01      0.6804E+06
   2845      1     31     91      0.6926E-01      0.6804E+06
   2846      1     31     92      0.6919E-01      0.6804E+06
   2847      1     31     93      0.6858E-01      0.6804E+06
   2848      1     31     94      0.6752E-01      0.6804E+06
   2849      1     31     95      0.6632E-01      0.6804E+06
   2850      1     31     96      0.6513E-01      0.6804E+06
   2851      1     31     97      0.6410E-01      0.6804E+06
   2852      1     31     98      0.6385E-01      0.6804E+06
   2853      1     31     99      0.6373E-01      0.6804E+06
   2854      1     31    100      0.6355E-01      0.6804E+06
   2855      1     32      1      0.5779          0.6804E+06
   2856      1     32      2      0.5603          0.6804E+06
   2857      1     32      3      0.5432          0.6804E+06
   2858      1     32      4      0.5223          0.6804E+06
   2859      1     32      5      0.4998          0.6804E+06
   2860      1     32      6      0.4791          0.6804E+06
   2861      1     32      7      0.4540          0.6804E+06
   2862      1     32      8      0.4267          0.6804E+06
   2863      1     32      9      0.4011          0.6804E+06
   2864      1     32     10      0.3698          0.6804E+06
   2865      1     32     11      0.3407          0.6804E+06
   2866      1     32     12      0.3063          0.6804E+06
   2867      1     32     13      0.2716          0.6804E+06
   2868      1     32     14      0.2416          0.6804E+06
   2869      1     32     15      0.2072          0.6804E+06
   2870      1     32     16      0.1779          0.6804E+06
   2871      1     32     17      0.1474          0.6804E+06
   2872      1     32     18      0.1244          0.6804E+06
   2873      1     32     19      0.1160          0.6804E+06
   2874      1     32     20      0.1127          0.6804E+06
   2875      1     32     21      0.1123          0.6804E+06
   2876      1     32     22      0.1126          0.6804E+06
   2877      1     32     23      0.1128          0.6804E+06
   2878      1     32     24      0.1111          0.6804E+06
   2879      1     32     25      0.1078          0.6804E+06
   2880      1     32     26      0.1035          0.6804E+06
   2881      1     32     27      0.9883E-01      0.6804E+06
   2882      1     32     28      0.9183E-01      0.6804E+06
   2883      1     32     29      0.8132E-01      0.6804E+06
   2884      1     32     30      0.6722E-01      0.6804E+06
   2885      1     32     31      0.4008E-01      0.6804E+06
   2886      1     32     32      0.5005E-02      0.6804E+06
   2887      1     32     59     -0.1228          0.6804E+06
   2888      1     32     60     -0.1187          0.6804E+06
   2889      1     32     61     -0.1189          0.6804E+06
   2890      1     32     62     -0.1090          0.6804E+06
   2891      1     32     63     -0.1122          0.6804E+06
   2892      1     32     64     -0.1184          0.6804E+06
   2893      1     32     65     -0.1213          0.6804E+06
   2894      1     32     66     -0.1004          0.6804E+06
   2895      1     32     67     -0.8122E-01      0.6804E+06
   2896      1     32     68     -0.6775E-01      0.6804E+06
   2897      1     32     69     -0.5838E-01      0.6804E+06
   2898      1     32     70       0.000          0.6804E+06
   2899      1     32     71       0.000          0.6804E+06
   2900      1     32     72       0.000          0.6804E+06
   2901      1     32     73       0.000          0.6804E+06
   2902      1     32     74       0.000          0.6804E+06
   2903      1     32     75       0.000          0.6804E+06
   2904      1     32     76       0.000          0.6804E+06
   2905      1     32     77       0.000          0.6804E+06
   2906      1     32     78       0.000          0.6804E+06
   2907      1     32     79       0.000          0.6804E+06
   2908      1     32     80       0.000          0.6804E+06
   2909      1     32     81       0.000          0.6804E+06
   2910      1     32     82      0.1953E-01      0.6804E+06
   2911      1     32     83      0.3269E-01      0.6804E+06
   2912      1     32     84      0.4489E-01      0.6804E+06
   2913      1     32     85      0.5309E-01      0.6804E+06
   2914      1     32     86      0.5995E-01      0.6804E+06
   2915      1     32     87      0.6416E-01      0.6804E+06
   2916      1     32     88      0.6654E-01      0.6804E+06
   2917      1     32     89      0.6828E-01      0.6804E+06
   2918      1     32     90      0.6913E-01      0.6804E+06
   2919      1     32     91      0.6949E-01      0.6804E+06
   2920      1     32     92      0.6939E-01      0.6804E+06
   2921      1     32     93      0.6886E-01      0.6804E+06
   2922      1     32     94      0.6782E-01      0.6804E+06
   2923      1     32     95      0.6661E-01      0.6804E+06
   2924      1     32     96      0.6550E-01      0.6804E+06
   2925      1     32     97      0.6456E-01      0.6804E+06
   2926      1     32     98      0.6433E-01      0.6804E+06
   2927      1     32     99      0.6422E-01      0.6804E+06
   2928      1     32    100      0.6391E-01      0.6804E+06
   2929      1     33      1      0.5810          0.6804E+06
   2930      1     33      2      0.5620          0.6804E+06
   2931      1     33      3      0.5437          0.6804E+06
   2932      1     33      4      0.5213          0.6804E+06
   2933      1     33      5      0.4973          0.6804E+06
   2934      1     33      6      0.4755          0.6804E+06
   2935      1     33      7      0.4501          0.6804E+06
   2936      1     33      8      0.4234          0.6804E+06
   2937      1     33      9      0.3986          0.6804E+06
   2938      1     33     10      0.3684          0.6804E+06
   2939      1     33     11      0.3403          0.6804E+06
   2940      1     33     12      0.3068          0.6804E+06
   2941      1     33     13      0.2724          0.6804E+06
   2942      1     33     14      0.2419          0.6804E+06
   2943      1     33     15      0.2067          0.6804E+06
   2944      1     33     16      0.1764          0.6804E+06
   2945      1     33     17      0.1449          0.6804E+06
   2946      1     33     18      0.1216          0.6804E+06
   2947      1     33     19      0.1147          0.6804E+06
   2948      1     33     20      0.1135          0.6804E+06
   2949      1     33     21      0.1152          0.6804E+06
   2950      1     33     22      0.1171          0.6804E+06
   2951      1     33     23      0.1176          0.6804E+06
   2952      1     33     24      0.1164          0.6804E+06
   2953      1     33     25      0.1139          0.6804E+06
   2954      1     33     26      0.1104          0.6804E+06
   2955      1     33     27      0.1059          0.6804E+06
   2956      1     33     28      0.9817E-01      0.6804E+06
   2957      1     33     29      0.8677E-01      0.6804E+06
   2958      1     33     30      0.7194E-01      0.6804E+06
   2959      1     33     31      0.4361E-01      0.6804E+06
   2960      1     33     32      0.9645E-02      0.6804E+06
   2961      1     33     59     -0.1126          0.6804E+06
   2962      1     33     60     -0.1104          0.6804E+06
   2963      1     33     61     -0.1023          0.6804E+06
   2964      1     33     62     -0.8346E-01      0.6804E+06
   2965      1     33     63     -0.8191E-01      0.6804E+06
   2966      1     33     64     -0.8904E-01      0.6804E+06
   2967      1     33     65     -0.9325E-01      0.6804E+06
   2968      1     33     66     -0.8452E-01      0.6804E+06
   2969      1     33     67     -0.6535E-01      0.6804E+06
   2970      1     33     68       0.000          0.6804E+06
   2971      1     33     69       0.000          0.6804E+06
   2972      1     33     70       0.000          0.6804E+06
   2973      1     33     71       0.000          0.6804E+06
   2974      1     33     72       0.000          0.6804E+06
   2975      1     33     73       0.000          0.6804E+06
   2976      1     33     74       0.000          0.6804E+06
   2977      1     33     75       0.000          0.6804E+06
   2978      1     33     76       0.000          0.6804E+06
   2979      1     33     77       0.000          0.6804E+06
   2980      1     33     78       0.000          0.6804E+06
   2981      1     33     79       0.000          0.6804E+06
   2982      1     33     80       0.000          0.6804E+06
   2983      1     33     81      0.5161E-02      0.6804E+06
   2984      1     33     82      0.2407E-01      0.6804E+06
   2985      1     33     83      0.3661E-01      0.6804E+06
   2986      1     33     84      0.4812E-01      0.6804E+06
   2987      1     33     85      0.5586E-01      0.6804E+06
   2988      1     33     86      0.6210E-01      0.6804E+06
   2989      1     33     87      0.6533E-01      0.6804E+06
   2990      1     33     88      0.6699E-01      0.6804E+06
   2991      1     33     89      0.6828E-01      0.6804E+06
   2992      1     33     90      0.6901E-01      0.6804E+06
   2993      1     33     91      0.6930E-01      0.6804E+06
   2994      1     33     92      0.6924E-01      0.6804E+06
   2995      1     33     93      0.6885E-01      0.6804E+06
   2996      1     33     94      0.6800E-01      0.6804E+06
   2997      1     33     95      0.6681E-01      0.6804E+06
   2998      1     33     96      0.6583E-01      0.6804E+06
   2999      1     33     97      0.6498E-01      0.6804E+06
   3000      1     33     98      0.6456E-01      0.6804E+06
   3001      1     33     99      0.6449E-01      0.6804E+06
   3002      1     33    100      0.6419E-01      0.6804E+06
   3003      1     34      1      0.5850          0.6804E+06
   3004      1     34      2      0.5644          0.6804E+06
   3005      1     34      3      0.5447          0.6804E+06
   3006      1     34      4      0.5207          0.6804E+06
   3007      1     34      5      0.4952          0.6804E+06
   3008      1     34      6      0.4723          0.6804E+06
   3009      1     34      7      0.4469          0.6804E+06
   3010      1     34      8      0.4209          0.6804E+06
   3011      1     34      9      0.3972          0.6804E+06
   3012      1     34     10      0.3685          0.6804E+06
   3013      1     34     11      0.3417          0.6804E+06
   3014      1     34     12      0.3096          0.6804E+06
   3015      1     34     13      0.2758          0.6804E+06
   3016      1     34     14      0.2450          0.6804E+06
   3017      1     34     15      0.2093          0.6804E+06
   3018      1     34     16      0.1789          0.6804E+06
   3019      1     34     17      0.1476          0.6804E+06
   3020      1     34     18      0.1252          0.6804E+06
   3021      1     34     19      0.1181          0.6804E+06
   3022      1     34     20      0.1171          0.6804E+06
   3023      1     34     21      0.1198          0.6804E+06
   3024      1     34     22      0.1228          0.6804E+06
   3025      1     34     23      0.1239          0.6804E+06
   3026      1     34     24      0.1226          0.6804E+06
   3027      1     34     25      0.1193          0.6804E+06
   3028      1     34     26      0.1146          0.6804E+06
   3029      1     34     27      0.1096          0.6804E+06
   3030      1     34     28      0.1010          0.6804E+06
   3031      1     34     29      0.8853E-01      0.6804E+06
   3032      1     34     30      0.7289E-01      0.6804E+06
   3033      1     34     31      0.4527E-01      0.6804E+06
   3034      1     34     32      0.1356E-01      0.6804E+06
   3035      1     34     58     -0.9494E-01      0.6804E+06
   3036      1     34     59     -0.9613E-01      0.6804E+06
   3037      1     34     60     -0.8755E-01      0.6804E+06
   3038      1     34     61     -0.7797E-01      0.6804E+06
   3039      1     34     62     -0.6027E-01      0.6804E+06
   3040      1     34     63     -0.5935E-01      0.6804E+06
   3041      1     34     64     -0.5738E-01      0.6804E+06
   3042      1     34     65     -0.5644E-01      0.6804E+06
   3043      1     34     66       0.000          0.6804E+06
   3044      1     34     67       0.000          0.6804E+06
   3045      1     34     68       0.000          0.6804E+06
   3046      1     34     69       0.000          0.6804E+06
   3047      1     34     70       0.000          0.6804E+06
   3048      1     34     71       0.000          0.6804E+06
   3049      1     34     72       0.000          0.6804E+06
   3050      1     34     73       0.000          0.6804E+06
   3051      1     34     74       0.000          0.6804E+06
   3052      1     34     75       0.000          0.6804E+06
   3053      1     34     76       0.000          0.6804E+06
   3054      1     34     77       0.000          0.6804E+06
   3055      1     34     78       0.000          0.6804E+06
   3056      1     34     79       0.000          0.6804E+06
   3057      1     34     80       0.000          0.6804E+06
   3058      1     34     81      0.1513E-01      0.6804E+06
   3059      1     34     82      0.2989E-01      0.6804E+06
   3060      1     34     83      0.4100E-01      0.6804E+06
   3061      1     34     84      0.5127E-01      0.6804E+06
   3062      1     34     85      0.5804E-01      0.6804E+06
   3063      1     34     86      0.6300E-01      0.6804E+06
   3064      1     34     87      0.6518E-01      0.6804E+06
   3065      1     34     88      0.6624E-01      0.6804E+06
   3066      1     34     89      0.6742E-01      0.6804E+06
   3067      1     34     90      0.6844E-01      0.6804E+06
   3068      1     34     91      0.6885E-01      0.6804E+06
   3069      1     34     92      0.6879E-01      0.6804E+06
   3070      1     34     93      0.6841E-01      0.6804E+06
   3071      1     34     94      0.6779E-01      0.6804E+06
   3072      1     34     95      0.6675E-01      0.6804E+06
   3073      1     34     96      0.6586E-01      0.6804E+06
   3074      1     34     97      0.6507E-01      0.6804E+06
   3075      1     34     98      0.6465E-01      0.6804E+06
   3076      1     34     99      0.6448E-01      0.6804E+06
   3077      1     34    100      0.6432E-01      0.6804E+06
   3078      1     35      1      0.5898          0.6804E+06
   3079      1     35      2      0.5675          0.6804E+06
   3080      1     35      3      0.5464          0.6804E+06
   3081      1     35      4      0.5210          0.6804E+06
   3082      1     35      5      0.4946          0.6804E+06
   3083      1     35      6      0.4713          0.6804E+06
   3084      1     35      7      0.4457          0.6804E+06
   3085      1     35      8      0.4202          0.6804E+06
   3086      1     35      9      0.3974          0.6804E+06
   3087      1     35     10      0.3702          0.6804E+06
   3088      1     35     11      0.3452          0.6804E+06
   3089      1     35     12      0.3147          0.6804E+06
   3090      1     35     13      0.2817          0.6804E+06
   3091      1     35     14      0.2509          0.6804E+06
   3092      1     35     15      0.2151          0.6804E+06
   3093      1     35     16      0.1847          0.6804E+06
   3094      1     35     17      0.1539          0.6804E+06
   3095      1     35     18      0.1323          0.6804E+06
   3096      1     35     19      0.1239          0.6804E+06
   3097      1     35     20      0.1219          0.6804E+06
   3098      1     35     21      0.1245          0.6804E+06
   3099      1     35     22      0.1281          0.6804E+06
   3100      1     35     23      0.1294          0.6804E+06
   3101      1     35     24      0.1270          0.6804E+06
   3102      1     35     25      0.1216          0.6804E+06
   3103      1     35     26      0.1152          0.6804E+06
   3104      1     35     27      0.1093          0.6804E+06
   3105      1     35     28      0.9887E-01      0.6804E+06
   3106      1     35     29      0.8436E-01      0.6804E+06
   3107      1     35     30      0.6686E-01      0.6804E+06
   3108      1     35     31      0.3778E-01      0.6804E+06
   3109      1     35     58     -0.7246E-01      0.6804E+06
   3110      1     35     59     -0.7209E-01      0.6804E+06
   3111      1     35     60     -0.6612E-01      0.6804E+06
   3112      1     35     61     -0.6193E-01      0.6804E+06
   3113      1     35     62     -0.5152E-01      0.6804E+06
   3114      1     35     63     -0.5240E-01      0.6804E+06
   3115      1     35     64       0.000          0.6804E+06
   3116      1     35     65       0.000          0.6804E+06
   3117      1     35     66       0.000          0.6804E+06
   3118      1     35     67       0.000          0.6804E+06
   3119      1     35     68       0.000          0.6804E+06
   3120      1     35     69       0.000          0.6804E+06
   3121      1     35     70       0.000          0.6804E+06
   3122      1     35     71       0.000          0.6804E+06
   3123      1     35     72       0.000          0.6804E+06
   3124      1     35     73       0.000          0.6804E+06
   3125      1     35     74       0.000          0.6804E+06
   3126      1     35     75       0.000          0.6804E+06
   3127      1     35     76       0.000          0.6804E+06
   3128      1     35     77       0.000          0.6804E+06
   3129      1     35     78       0.000          0.6804E+06
   3130      1     35     79       0.000          0.6804E+06
   3131      1     35     80      0.2748E-02      0.6804E+06
   3132      1     35     81      0.2048E-01      0.6804E+06
   3133      1     35     82      0.3463E-01      0.6804E+06
   3134      1     35     83      0.4484E-01      0.6804E+06
   3135      1     35     84      0.5406E-01      0.6804E+06
   3136      1     35     85      0.5989E-01      0.6804E+06
   3137      1     35     86      0.6347E-01      0.6804E+06
   3138      1     35     87      0.6468E-01      0.6804E+06
   3139      1     35     88      0.6529E-01      0.6804E+06
   3140      1     35     89      0.6646E-01      0.6804E+06
   3141      1     35     90      0.6766E-01      0.6804E+06
   3142      1     35     91      0.6808E-01      0.6804E+06
   3143      1     35     92      0.6808E-01      0.6804E+06
   3144      1     35     93      0.6782E-01      0.6804E+06
   3145      1     35     94      0.6721E-01      0.6804E+06
   3146      1     35     95      0.6632E-01      0.6804E+06
   3147      1     35     96      0.6559E-01      0.6804E+06
   3148      1     35     97      0.6492E-01      0.6804E+06
   3149      1     35     98      0.6446E-01      0.6804E+06
   3150      1     35     99      0.6425E-01      0.6804E+06
   3151      1     35    100      0.6413E-01      0.6804E+06
   3152      1     36      1      0.5945          0.6804E+06
   3153      1     36      2      0.5707          0.6804E+06
   3154      1     36      3      0.5485          0.6804E+06
   3155      1     36      4      0.5221          0.6804E+06
   3156      1     36      5      0.4951          0.6804E+06
   3157      1     36      6      0.4717          0.6804E+06
   3158      1     36      7      0.4458          0.6804E+06
   3159      1     36      8      0.4205          0.6804E+06
   3160      1     36      9      0.3983          0.6804E+06
   3161      1     36     10      0.3725          0.6804E+06
   3162      1     36     11      0.3492          0.6804E+06
   3163      1     36     12      0.3208          0.6804E+06
   3164      1     36     13      0.2890          0.6804E+06
   3165      1     36     14      0.2581          0.6804E+06
   3166      1     36     15      0.2218          0.6804E+06
   3167      1     36     16      0.1908          0.6804E+06
   3168      1     36     17      0.1589          0.6804E+06
   3169      1     36     18      0.1364          0.6804E+06
   3170      1     36     19      0.1278          0.6804E+06
   3171      1     36     20      0.1253          0.6804E+06
   3172      1     36     21      0.1273          0.6804E+06
   3173      1     36     22      0.1305          0.6804E+06
   3174      1     36     23      0.1314          0.6804E+06
   3175      1     36     24      0.1276          0.6804E+06
   3176      1     36     25      0.1201          0.6804E+06
   3177      1     36     26      0.1124          0.6804E+06
   3178      1     36     27      0.1054          0.6804E+06
   3179      1     36     28      0.9293E-01      0.6804E+06
   3180      1     36     29      0.7565E-01      0.6804E+06
   3181      1     36     30      0.5505E-01      0.6804E+06
   3182      1     36     31      0.2168E-01      0.6804E+06
   3183      1     36     58     -0.5577E-01      0.6804E+06
   3184      1     36     59     -0.5434E-01      0.6804E+06
   3185      1     36     60     -0.5409E-01      0.6804E+06
   3186      1     36     61     -0.5361E-01      0.6804E+06
   3187      1     36     62       0.000          0.6804E+06
   3188      1     36     63       0.000          0.6804E+06
   3189      1     36     64       0.000          0.6804E+06
   3190      1     36     65       0.000          0.6804E+06
   3191      1     36     66       0.000          0.6804E+06
   3192      1     36     67       0.000          0.6804E+06
   3193      1     36     68       0.000          0.6804E+06
   3194      1     36     69       0.000          0.6804E+06
   3195      1     36     70       0.000          0.6804E+06
   3196      1     36     71       0.000          0.6804E+06
   3197      1     36     72       0.000          0.6804E+06
   3198      1     36     73       0.000          0.6804E+06
   3199      1     36     74       0.000          0.6804E+06
   3200      1     36     75       0.000          0.6804E+06
   3201      1     36     76       0.000          0.6804E+06
   3202      1     36     77       0.000          0.6804E+06
   3203      1     36     78       0.000          0.6804E+06
   3204      1     36     79       0.000          0.6804E+06
   3205      1     36     80      0.1034E-01      0.6804E+06
   3206      1     36     81      0.2546E-01      0.6804E+06
   3207      1     36     82      0.3828E-01      0.6804E+06
   3208      1     36     83      0.4767E-01      0.6804E+06
   3209      1     36     84      0.5630E-01      0.6804E+06
   3210      1     36     85      0.6163E-01      0.6804E+06
   3211      1     36     86      0.6422E-01      0.6804E+06
   3212      1     36     87      0.6472E-01      0.6804E+06
   3213      1     36     88      0.6492E-01      0.6804E+06
   3214      1     36     89      0.6586E-01      0.6804E+06
   3215      1     36     90      0.6691E-01      0.6804E+06
   3216      1     36     91      0.6726E-01      0.6804E+06
   3217      1     36     92      0.6731E-01      0.6804E+06
   3218      1     36     93      0.6720E-01      0.6804E+06
   3219      1     36     94      0.6656E-01      0.6804E+06
   3220      1     36     95      0.6579E-01      0.6804E+06
   3221      1     36     96      0.6518E-01      0.6804E+06
   3222      1     36     97      0.6460E-01      0.6804E+06
   3223      1     36     98      0.6422E-01      0.6804E+06
   3224      1     36     99      0.6396E-01      0.6804E+06
   3225      1     36    100      0.6380E-01      0.6804E+06
   3226      1     37      1      0.6002          0.6804E+06
   3227      1     37      2      0.5746          0.6804E+06
   3228      1     37      3      0.5510          0.6804E+06
   3229      1     37      4      0.5234          0.6804E+06
   3230      1     37      5      0.4958          0.6804E+06
   3231      1     37      6      0.4722          0.6804E+06
   3232      1     37      7      0.4461          0.6804E+06
   3233      1     37      8      0.4209          0.6804E+06
   3234      1     37      9      0.3993          0.6804E+06
   3235      1     37     10      0.3749          0.6804E+06
   3236      1     37     11      0.3536          0.6804E+06
   3237      1     37     12      0.3282          0.6804E+06
   3238      1     37     13      0.2989          0.6804E+06
   3239      1     37     14      0.2670          0.6804E+06
   3240      1     37     15      0.2302          0.6804E+06
   3241      1     37     16      0.1990          0.6804E+06
   3242      1     37     17      0.1670          0.6804E+06
   3243      1     37     18      0.1434          0.6804E+06
   3244      1     37     19      0.1327          0.6804E+06
   3245      1     37     20      0.1274          0.6804E+06
   3246      1     37     21      0.1264          0.6804E+06
   3247      1     37     22      0.1275          0.6804E+06
   3248      1     37     23      0.1263          0.6804E+06
   3249      1     37     24      0.1215          0.6804E+06
   3250      1     37     25      0.1131          0.6804E+06
   3251      1     37     26      0.1041          0.6804E+06
   3252      1     37     27      0.9534E-01      0.6804E+06
   3253      1     37     28      0.8062E-01      0.6804E+06
   3254      1     37     29      0.5971E-01      0.6804E+06
   3255      1     37     30      0.3618E-01      0.6804E+06
   3256      1     37     58     -0.5410E-01      0.6804E+06
   3257      1     37     59     -0.5313E-01      0.6804E+06
   3258      1     37     60     -0.5294E-01      0.6804E+06
   3259      1     37     61     -0.5339E-01      0.6804E+06
   3260      1     37     62       0.000          0.6804E+06
   3261      1     37     63       0.000          0.6804E+06
   3262      1     37     64       0.000          0.6804E+06
   3263      1     37     65       0.000          0.6804E+06
   3264      1     37     66       0.000          0.6804E+06
   3265      1     37     67       0.000          0.6804E+06
   3266      1     37     68       0.000          0.6804E+06
   3267      1     37     69       0.000          0.6804E+06
   3268      1     37     70       0.000          0.6804E+06
   3269      1     37     71       0.000          0.6804E+06
   3270      1     37     72       0.000          0.6804E+06
   3271      1     37     73       0.000          0.6804E+06
   3272      1     37     74       0.000          0.6804E+06
   3273      1     37     75       0.000          0.6804E+06
   3274      1     37     76       0.000          0.6804E+06
   3275      1     37     77       0.000          0.6804E+06
   3276      1     37     78       0.000          0.6804E+06
   3277      1     37     79      0.3399E-03      0.6804E+06
   3278      1     37     80      0.1354E-01      0.6804E+06
   3279      1     37     81      0.2884E-01      0.6804E+06
   3280      1     37     82      0.4122E-01      0.6804E+06
   3281      1     37     83      0.5037E-01      0.6804E+06
   3282      1     37     84      0.5852E-01      0.6804E+06
   3283      1     37     85      0.6299E-01      0.6804E+06
   3284      1     37     86      0.6497E-01      0.6804E+06
   3285      1     37     87      0.6523E-01      0.6804E+06
   3286      1     37     88      0.6514E-01      0.6804E+06
   3287      1     37     89      0.6546E-01      0.6804E+06
   3288      1     37     90      0.6608E-01      0.6804E+06
   3289      1     37     91      0.6635E-01      0.6804E+06
   3290      1     37     92      0.6645E-01      0.6804E+06
   3291      1     37     93      0.6641E-01      0.6804E+06
   3292      1     37     94      0.6582E-01      0.6804E+06
   3293      1     37     95      0.6519E-01      0.6804E+06
   3294      1     37     96      0.6463E-01      0.6804E+06
   3295      1     37     97      0.6406E-01      0.6804E+06
   3296      1     37     98      0.6387E-01      0.6804E+06
   3297      1     37     99      0.6359E-01      0.6804E+06
   3298      1     37    100      0.6340E-01      0.6804E+06
   3299      1     38      1      0.6058          0.6804E+06
   3300      1     38      2      0.5783          0.6804E+06
   3301      1     38      3      0.5533          0.6804E+06
   3302      1     38      4      0.5242          0.6804E+06
   3303      1     38      5      0.4957          0.6804E+06
   3304      1     38      6      0.4716          0.6804E+06
   3305      1     38      7      0.4454          0.6804E+06
   3306      1     38      8      0.4204          0.6804E+06
   3307      1     38      9      0.3995          0.6804E+06
   3308      1     38     10      0.3761          0.6804E+06
   3309      1     38     11      0.3561          0.6804E+06
   3310      1     38     12      0.3322          0.6804E+06
   3311      1     38     13      0.3046          0.6804E+06
   3312      1     38     14      0.2735          0.6804E+06
   3313      1     38     15      0.2376          0.6804E+06
   3314      1     38     16      0.2076          0.6804E+06
   3315      1     38     17      0.1767          0.6804E+06
   3316      1     38     18      0.1523          0.6804E+06
   3317      1     38     19      0.1376          0.6804E+06
   3318      1     38     20      0.1266          0.6804E+06
   3319      1     38     21      0.1211          0.6804E+06
   3320      1     38     22      0.1204          0.6804E+06
   3321      1     38     23      0.1171          0.6804E+06
   3322      1     38     24      0.1110          0.6804E+06
   3323      1     38     25      0.1016          0.6804E+06
   3324      1     38     26      0.9116E-01      0.6804E+06
   3325      1     38     27      0.8044E-01      0.6804E+06
   3326      1     38     28      0.6291E-01      0.6804E+06
   3327      1     38     29      0.3824E-01      0.6804E+06
   3328      1     38     58     -0.5216E-01      0.6804E+06
   3329      1     38     59     -0.5327E-01      0.6804E+06
   3330      1     38     60     -0.5256E-01      0.6804E+06
   3331      1     38     61     -0.5299E-01      0.6804E+06
   3332      1     38     62       0.000          0.6804E+06
   3333      1     38     63       0.000          0.6804E+06
   3334      1     38     64       0.000          0.6804E+06
   3335      1     38     65       0.000          0.6804E+06
   3336      1     38     66       0.000          0.6804E+06
   3337      1     38     67       0.000          0.6804E+06
   3338      1     38     68       0.000          0.6804E+06
   3339      1     38     69       0.000          0.6804E+06
   3340      1     38     70       0.000          0.6804E+06
   3341      1     38     71       0.000          0.6804E+06
   3342      1     38     72       0.000          0.6804E+06
   3343      1     38     73       0.000          0.6804E+06
   3344      1     38     74       0.000          0.6804E+06
   3345      1     38     75       0.000          0.6804E+06
   3346      1     38     76       0.000          0.6804E+06
   3347      1     38     77       0.000          0.6804E+06
   3348      1     38     78       0.000          0.6804E+06
   3349      1     38     79      0.2886E-02      0.6804E+06
   3350      1     38     80      0.1388E-01      0.6804E+06
   3351      1     38     81      0.2917E-01      0.6804E+06
   3352      1     38     82      0.4258E-01      0.6804E+06
   3353      1     38     83      0.5246E-01      0.6804E+06
   3354      1     38     84      0.6075E-01      0.6804E+06
   3355      1     38     85      0.6428E-01      0.6804E+06
   3356      1     38     86      0.6550E-01      0.6804E+06
   3357      1     38     87      0.6531E-01      0.6804E+06
   3358      1     38     88      0.6494E-01      0.6804E+06
   3359      1     38     89      0.6507E-01      0.6804E+06
   3360      1     38     90      0.6544E-01      0.6804E+06
   3361      1     38     91      0.6572E-01      0.6804E+06
   3362      1     38     92      0.6587E-01      0.6804E+06
   3363      1     38     93      0.6578E-01      0.6804E+06
   3364      1     38     94      0.6534E-01      0.6804E+06
   3365      1     38     95      0.6474E-01      0.6804E+06
   3366      1     38     96      0.6417E-01      0.6804E+06
   3367      1     38     97      0.6358E-01      0.6804E+06
   3368      1     38     98      0.6338E-01      0.6804E+06
   3369      1     38     99      0.6326E-01      0.6804E+06
   3370      1     38    100      0.6322E-01      0.6804E+06
   3371      1     39      1      0.6106          0.6804E+06
   3372      1     39      2      0.5812          0.6804E+06
   3373      1     39      3      0.5546          0.6804E+06
   3374      1     39      4      0.5241          0.6804E+06
   3375      1     39      5      0.4944          0.6804E+06
   3376      1     39      6      0.4698          0.6804E+06
   3377      1     39      7      0.4435          0.6804E+06
   3378      1     39      8      0.4189          0.6804E+06
   3379      1     39      9      0.3984          0.6804E+06
   3380      1     39     10      0.3756          0.6804E+06
   3381      1     39     11      0.3558          0.6804E+06
   3382      1     39     12      0.3318          0.6804E+06
   3383      1     39     13      0.3043          0.6804E+06
   3384      1     39     14      0.2759          0.6804E+06
   3385      1     39     15      0.2425          0.6804E+06
   3386      1     39     16      0.2142          0.6804E+06
   3387      1     39     17      0.1847          0.6804E+06
   3388      1     39     18      0.1597          0.6804E+06
   3389      1     39     19      0.1401          0.6804E+06
   3390      1     39     20      0.1221          0.6804E+06
   3391      1     39     21      0.1107          0.6804E+06
   3392      1     39     22      0.1073          0.6804E+06
   3393      1     39     23      0.1032          0.6804E+06
   3394      1     39     24      0.9753E-01      0.6804E+06
   3395      1     39     25      0.8892E-01      0.6804E+06
   3396      1     39     26      0.7796E-01      0.6804E+06
   3397      1     39     27      0.6500E-01      0.6804E+06
   3398      1     39     28      0.4355E-01      0.6804E+06
   3399      1     39     29      0.1509E-01      0.6804E+06
   3400      1     39     58     -0.5574E-01      0.6804E+06
   3401      1     39     59     -0.5255E-01      0.6804E+06
   3402      1     39     60     -0.5170E-01      0.6804E+06
   3403      1     39     61     -0.5034E-01      0.6804E+06
   3404      1     39     62       0.000          0.6804E+06
   3405      1     39     63       0.000          0.6804E+06
   3406      1     39     64       0.000          0.6804E+06
   3407      1     39     65       0.000          0.6804E+06
   3408      1     39     66       0.000          0.6804E+06
   3409      1     39     67       0.000          0.6804E+06
   3410      1     39     68       0.000          0.6804E+06
   3411      1     39     69       0.000          0.6804E+06
   3412      1     39     70       0.000          0.6804E+06
   3413      1     39     71       0.000          0.6804E+06
   3414      1     39     72       0.000          0.6804E+06
   3415      1     39     73       0.000          0.6804E+06
   3416      1     39     74       0.000          0.6804E+06
   3417      1     39     75       0.000          0.6804E+06
   3418      1     39     76       0.000          0.6804E+06
   3419      1     39     77       0.000          0.6804E+06
   3420      1     39     78       0.000          0.6804E+06
   3421      1     39     79       0.000          0.6804E+06
   3422      1     39     80      0.1066E-01      0.6804E+06
   3423      1     39     81      0.2790E-01      0.6804E+06
   3424      1     39     82      0.4297E-01      0.6804E+06
   3425      1     39     83      0.5376E-01      0.6804E+06
   3426      1     39     84      0.6223E-01      0.6804E+06
   3427      1     39     85      0.6521E-01      0.6804E+06
   3428      1     39     86      0.6591E-01      0.6804E+06
   3429      1     39     87      0.6528E-01      0.6804E+06
   3430      1     39     88      0.6462E-01      0.6804E+06
   3431      1     39     89      0.6478E-01      0.6804E+06
   3432      1     39     90      0.6514E-01      0.6804E+06
   3433      1     39     91      0.6542E-01      0.6804E+06
   3434      1     39     92      0.6554E-01      0.6804E+06
   3435      1     39     93      0.6535E-01      0.6804E+06
   3436      1     39     94      0.6482E-01      0.6804E+06
   3437      1     39     95      0.6430E-01      0.6804E+06
   3438      1     39     96      0.6387E-01      0.6804E+06
   3439      1     39     97      0.6341E-01      0.6804E+06
   3440      1     39     98      0.6321E-01      0.6804E+06
   3441      1     39     99      0.6311E-01      0.6804E+06
   3442      1     39    100      0.6326E-01      0.6804E+06
   3443      1     40      1      0.6157          0.6804E+06
   3444      1     40      2      0.5839          0.6804E+06
   3445      1     40      3      0.5554          0.6804E+06
   3446      1     40      4      0.5228          0.6804E+06
   3447      1     40      5      0.4915          0.6804E+06
   3448      1     40      6      0.4663          0.6804E+06
   3449      1     40      7      0.4399          0.6804E+06
   3450      1     40      8      0.4156          0.6804E+06
   3451      1     40      9      0.3957          0.6804E+06
   3452      1     40     10      0.3736          0.6804E+06
   3453      1     40     11      0.3539          0.6804E+06
   3454      1     40     12      0.3300          0.6804E+06
   3455      1     40     13      0.3033          0.6804E+06
   3456      1     40     14      0.2770          0.6804E+06
   3457      1     40     15      0.2458          0.6804E+06
   3458      1     40     16      0.2190          0.6804E+06
   3459      1     40     17      0.1901          0.6804E+06
   3460      1     40     18      0.1639          0.6804E+06
   3461      1     40     19      0.1386          0.6804E+06
   3462      1     40     20      0.1114          0.6804E+06
   3463      1     40     21      0.9120E-01      0.6804E+06
   3464      1     40     22      0.8318E-01      0.6804E+06
   3465      1     40     23      0.8053E-01      0.6804E+06
   3466      1     40     24      0.7854E-01      0.6804E+06
   3467      1     40     25      0.7347E-01      0.6804E+06
   3468      1     40     26      0.6318E-01      0.6804E+06
   3469      1     40     27      0.4816E-01      0.6804E+06
   3470      1     40     28      0.2003E-01      0.6804E+06
   3471      1     40     58     -0.5780E-01      0.6804E+06
   3472      1     40     59     -0.5226E-01      0.6804E+06
   3473      1     40     60     -0.4942E-01      0.6804E+06
   3474      1     40     61       0.000          0.6804E+06
   3475      1     40     62       0.000          0.6804E+06
   3476      1     40     63       0.000          0.6804E+06
   3477      1     40     64       0.000          0.6804E+06
   3478      1     40     65       0.000          0.6804E+06
   3479      1     40     66       0.000          0.6804E+06
   3480      1     40     67       0.000          0.6804E+06
   3481      1     40     68       0.000          0.6804E+06
   3482      1     40     69       0.000          0.6804E+06
   3483      1     40     70       0.000          0.6804E+06
   3484      1     40     71       0.000          0.6804E+06
   3485      1     40     72       0.000          0.6804E+06
   3486      1     40     73       0.000          0.6804E+06
   3487      1     40     74       0.000          0.6804E+06
   3488      1     40     75       0.000          0.6804E+06
   3489      1     40     76       0.000          0.6804E+06
   3490      1     40     77       0.000          0.6804E+06
   3491      1     40     78       0.000          0.6804E+06
   3492      1     40     79       0.000          0.6804E+06
   3493      1     40     80      0.4358E-02      0.6804E+06
   3494      1     40     81      0.2614E-01      0.6804E+06
   3495      1     40     82      0.4355E-01      0.6804E+06
   3496      1     40     83      0.5502E-01      0.6804E+06
   3497      1     40     84      0.6320E-01      0.6804E+06
   3498      1     40     85      0.6600E-01      0.6804E+06
   3499      1     40     86      0.6648E-01      0.6804E+06
   3500      1     40     87      0.6553E-01      0.6804E+06
   3501      1     40     88      0.6460E-01      0.6804E+06
   3502      1     40     89      0.6468E-01      0.6804E+06
   3503      1     40     90      0.6496E-01      0.6804E+06
   3504      1     40     91      0.6516E-01      0.6804E+06
   3505      1     40     92      0.6512E-01      0.6804E+06
   3506      1     40     93      0.6470E-01      0.6804E+06
   3507      1     40     94      0.6424E-01      0.6804E+06
   3508      1     40     95      0.6388E-01      0.6804E+06
   3509      1     40     96      0.6362E-01      0.6804E+06
   3510      1     40     97      0.6335E-01      0.6804E+06
   3511      1     40     98      0.6319E-01      0.6804E+06
   3512      1     40     99      0.6333E-01      0.6804E+06
   3513      1     40    100      0.6359E-01      0.6804E+06
   3514      1     41      1      0.6200          0.6804E+06
   3515      1     41      2      0.5856          0.6804E+06
   3516      1     41      3      0.5551          0.6804E+06
   3517      1     41      4      0.5206          0.6804E+06
   3518      1     41      5      0.4879          0.6804E+06
   3519      1     41      6      0.4620          0.6804E+06
   3520      1     41      7      0.4355          0.6804E+06
   3521      1     41      8      0.4116          0.6804E+06
   3522      1     41      9      0.3922          0.6804E+06
   3523      1     41     10      0.3708          0.6804E+06
   3524      1     41     11      0.3518          0.6804E+06
   3525      1     41     12      0.3287          0.6804E+06
   3526      1     41     13      0.3028          0.6804E+06
   3527      1     41     14      0.2775          0.6804E+06
   3528      1     41     15      0.2472          0.6804E+06
   3529      1     41     16      0.2205          0.6804E+06
   3530      1     41     17      0.1905          0.6804E+06
   3531      1     41     18      0.1605          0.6804E+06
   3532      1     41     19      0.1316          0.6804E+06
   3533      1     41     20      0.9813E-01      0.6804E+06
   3534      1     41     21      0.6926E-01      0.6804E+06
   3535      1     41     22      0.5697E-01      0.6804E+06
   3536      1     41     23      0.5786E-01      0.6804E+06
   3537      1     41     24      0.6167E-01      0.6804E+06
   3538      1     41     25      0.6155E-01      0.6804E+06
   3539      1     41     26      0.5299E-01      0.6804E+06
   3540      1     41     27      0.3764E-01      0.6804E+06
   3541      1     41     28      0.4033E-02      0.6804E+06
   3542      1     41     58     -0.5797E-01      0.6804E+06
   3543      1     41     59     -0.5117E-01      0.6804E+06
   3544      1     41     60     -0.4610E-01      0.6804E+06
   3545      1     41     61       0.000          0.6804E+06
   3546      1     41     62       0.000          0.6804E+06
   3547      1     41     63       0.000          0.6804E+06
   3548      1     41     64       0.000          0.6804E+06
   3549      1     41     65       0.000          0.6804E+06
   3550      1     41     66       0.000          0.6804E+06
   3551      1     41     67       0.000          0.6804E+06
   3552      1     41     68       0.000          0.6804E+06
   3553      1     41     69       0.000          0.6804E+06
   3554      1     41     70       0.000          0.6804E+06
   3555      1     41     71       0.000          0.6804E+06
   3556      1     41     72       0.000          0.6804E+06
   3557      1     41     73       0.000          0.6804E+06
   3558      1     41     74       0.000          0.6804E+06
   3559      1     41     75       0.000          0.6804E+06
   3560      1     41     76       0.000          0.6804E+06
   3561      1     41     77       0.000          0.6804E+06
   3562      1     41     78       0.000          0.6804E+06
   3563      1     41     79       0.000          0.6804E+06
   3564      1     41     80      0.2738E-02      0.6804E+06
   3565      1     41     81      0.2637E-01      0.6804E+06
   3566      1     41     82      0.4534E-01      0.6804E+06
   3567      1     41     83      0.5728E-01      0.6804E+06
   3568      1     41     84      0.6478E-01      0.6804E+06
   3569      1     41     85      0.6705E-01      0.6804E+06
   3570      1     41     86      0.6728E-01      0.6804E+06
   3571      1     41     87      0.6635E-01      0.6804E+06
   3572      1     41     88      0.6540E-01      0.6804E+06
   3573      1     41     89      0.6501E-01      0.6804E+06
   3574      1     41     90      0.6488E-01      0.6804E+06
   3575      1     41     91      0.6482E-01      0.6804E+06
   3576      1     41     92      0.6455E-01      0.6804E+06
   3577      1     41     93      0.6397E-01      0.6804E+06
   3578      1     41     94      0.6378E-01      0.6804E+06
   3579      1     41     95      0.6361E-01      0.6804E+06
   3580      1     41     96      0.6342E-01      0.6804E+06
   3581      1     41     97      0.6326E-01      0.6804E+06
   3582      1     41     98      0.6311E-01      0.6804E+06
   3583      1     41     99      0.6343E-01      0.6804E+06
   3584      1     41    100      0.6384E-01      0.6804E+06
   3585      1     42      1      0.6243          0.6804E+06
   3586      1     42      2      0.5865          0.6804E+06
   3587      1     42      3      0.5534          0.6804E+06
   3588      1     42      4      0.5165          0.6804E+06
   3589      1     42      5      0.4823          0.6804E+06
   3590      1     42      6      0.4559          0.6804E+06
   3591      1     42      7      0.4292          0.6804E+06
   3592      1     42      8      0.4057          0.6804E+06
   3593      1     42      9      0.3871          0.6804E+06
   3594      1     42     10      0.3668          0.6804E+06
   3595      1     42     11      0.3489          0.6804E+06
   3596      1     42     12      0.3272          0.6804E+06
   3597      1     42     13      0.3023          0.6804E+06
   3598      1     42     14      0.2777          0.6804E+06
   3599      1     42     15      0.2479          0.6804E+06
   3600      1     42     16      0.2211          0.6804E+06
   3601      1     42     17      0.1897          0.6804E+06
   3602      1     42     18      0.1567          0.6804E+06
   3603      1     42     19      0.1257          0.6804E+06
   3604      1     42     20      0.8865E-01      0.6804E+06
   3605      1     42     21      0.5453E-01      0.6804E+06
   3606      1     42     22      0.3974E-01      0.6804E+06
   3607      1     42     23      0.4285E-01      0.6804E+06
   3608      1     42     24      0.5119E-01      0.6804E+06
   3609      1     42     25      0.5542E-01      0.6804E+06
   3610      1     42     26      0.4942E-01      0.6804E+06
   3611      1     42     27      0.3605E-01      0.6804E+06
   3612      1     42     28      0.5509E-02      0.6804E+06
   3613      1     42     57     -0.6526E-01      0.6804E+06
   3614      1     42     58     -0.5522E-01      0.6804E+06
   3615      1     42     59     -0.5115E-01      0.6804E+06
   3616      1     42     60     -0.4406E-01      0.6804E+06
   3617      1     42     61       0.000          0.6804E+06
   3618      1     42     62       0.000          0.6804E+06
   3619      1     42     63       0.000          0.6804E+06
   3620      1     42     64       0.000          0.6804E+06
   3621      1     42     65       0.000          0.6804E+06
   3622      1     42     66       0.000          0.6804E+06
   3623      1     42     67       0.000          0.6804E+06
   3624      1     42     68       0.000          0.6804E+06
   3625      1     42     69       0.000          0.6804E+06
   3626      1     42     70       0.000          0.6804E+06
   3627      1     42     71       0.000          0.6804E+06
   3628      1     42     72       0.000          0.6804E+06
   3629      1     42     73       0.000          0.6804E+06
   3630      1     42     74       0.000          0.6804E+06
   3631      1     42     75       0.000          0.6804E+06
   3632      1     42     76       0.000          0.6804E+06
   3633      1     42     77       0.000          0.6804E+06
   3634      1     42     78       0.000          0.6804E+06
   3635      1     42     79       0.000          0.6804E+06
   3636      1     42     80      0.6835E-02      0.6804E+06
   3637      1     42     81      0.2985E-01      0.6804E+06
   3638      1     42     82      0.4835E-01      0.6804E+06
   3639      1     42     83      0.5979E-01      0.6804E+06
   3640      1     42     84      0.6652E-01      0.6804E+06
   3641      1     42     85      0.6833E-01      0.6804E+06
   3642      1     42     86      0.6828E-01      0.6804E+06
   3643      1     42     87      0.6724E-01      0.6804E+06
   3644      1     42     88      0.6615E-01      0.6804E+06
   3645      1     42     89      0.6532E-01      0.6804E+06
   3646      1     42     90      0.6490E-01      0.6804E+06
   3647      1     42     91      0.6444E-01      0.6804E+06
   3648      1     42     92      0.6375E-01      0.6804E+06
   3649      1     42     93      0.6347E-01      0.6804E+06
   3650      1     42     94      0.6335E-01      0.6804E+06
   3651      1     42     95      0.6322E-01      0.6804E+06
   3652      1     42     96      0.6309E-01      0.6804E+06
   3653      1     42     97      0.6294E-01      0.6804E+06
   3654      1     42     98      0.6281E-01      0.6804E+06
   3655      1     42     99      0.6319E-01      0.6804E+06
   3656      1     42    100      0.6388E-01      0.6804E+06
   3657      1     43      1      0.6271          0.6804E+06
   3658      1     43      2      0.5860          0.6804E+06
   3659      1     43      3      0.5499          0.6804E+06
   3660      1     43      4      0.5102          0.6804E+06
   3661      1     43      5      0.4744          0.6804E+06
   3662      1     43      6      0.4474          0.6804E+06
   3663      1     43      7      0.4211          0.6804E+06
   3664      1     43      8      0.3985          0.6804E+06
   3665      1     43      9      0.3810          0.6804E+06
   3666      1     43     10      0.3620          0.6804E+06
   3667      1     43     11      0.3454          0.6804E+06
   3668      1     43     12      0.3250          0.6804E+06
   3669      1     43     13      0.3014          0.6804E+06
   3670      1     43     14      0.2777          0.6804E+06
   3671      1     43     15      0.2486          0.6804E+06
   3672      1     43     16      0.2218          0.6804E+06
   3673      1     43     17      0.1899          0.6804E+06
   3674      1     43     18      0.1560          0.6804E+06
   3675      1     43     19      0.1248          0.6804E+06
   3676      1     43     20      0.8877E-01      0.6804E+06
   3677      1     43     21      0.5680E-01      0.6804E+06
   3678      1     43     22      0.4287E-01      0.6804E+06
   3679      1     43     23      0.4420E-01      0.6804E+06
   3680      1     43     24      0.5142E-01      0.6804E+06
   3681      1     43     25      0.5615E-01      0.6804E+06
   3682      1     43     26      0.5316E-01      0.6804E+06
   3683      1     43     58     -0.5469E-01      0.6804E+06
   3684      1     43     59     -0.5139E-01      0.6804E+06
   3685      1     43     60       0.000          0.6804E+06
   3686      1     43     61       0.000          0.6804E+06
   3687      1     43     62       0.000          0.6804E+06
   3688      1     43     63       0.000          0.6804E+06
   3689      1     43     64       0.000          0.6804E+06
   3690      1     43     65       0.000          0.6804E+06
   3691      1     43     66       0.000          0.6804E+06
   3692      1     43     67       0.000          0.6804E+06
   3693      1     43     68       0.000          0.6804E+06
   3694      1     43     69       0.000          0.6804E+06
   3695      1     43     70       0.000          0.6804E+06
   3696      1     43     71       0.000          0.6804E+06
   3697      1     43     72       0.000          0.6804E+06
   3698      1     43     73       0.000          0.6804E+06
   3699      1     43     74       0.000          0.6804E+06
   3700      1     43     75       0.000          0.6804E+06
   3701      1     43     76       0.000          0.6804E+06
   3702      1     43     77       0.000          0.6804E+06
   3703      1     43     78       0.000          0.6804E+06
   3704      1     43     79       0.000          0.6804E+06
   3705      1     43     80      0.1676E-01      0.6804E+06
   3706      1     43     81      0.3708E-01      0.6804E+06
   3707      1     43     82      0.5298E-01      0.6804E+06
   3708      1     43     83      0.6277E-01      0.6804E+06
   3709      1     43     84      0.6843E-01      0.6804E+06
   3710      1     43     85      0.6982E-01      0.6804E+06
   3711      1     43     86      0.6933E-01      0.6804E+06
   3712      1     43     87      0.6783E-01      0.6804E+06
   3713      1     43     88      0.6638E-01      0.6804E+06
   3714      1     43     89      0.6507E-01      0.6804E+06
   3715      1     43     90      0.6442E-01      0.6804E+06
   3716      1     43     91      0.6399E-01      0.6804E+06
   3717      1     43     92      0.6350E-01      0.6804E+06
   3718      1     43     93      0.6326E-01      0.6804E+06
   3719      1     43     94      0.6309E-01      0.6804E+06
   3720      1     43     95      0.6287E-01      0.6804E+06
   3721      1     43     96      0.6266E-01      0.6804E+06
   3722      1     43     97      0.6267E-01      0.6804E+06
   3723      1     43     98      0.6299E-01      0.6804E+06
   3724      1     43     99      0.6362E-01      0.6804E+06
   3725      1     43    100      0.6436E-01      0.6804E+06
   3726      1     44      1      0.6289          0.6804E+06
   3727      1     44      2      0.5845          0.6804E+06
   3728      1     44      3      0.5454          0.6804E+06
   3729      1     44      4      0.5026          0.6804E+06
   3730      1     44      5      0.4648          0.6804E+06
   3731      1     44      6      0.4376          0.6804E+06
   3732      1     44      7      0.4120          0.6804E+06
   3733      1     44      8      0.3909          0.6804E+06
   3734      1     44      9      0.3748          0.6804E+06
   3735      1     44     10      0.3574          0.6804E+06
   3736      1     44     11      0.3419          0.6804E+06
   3737      1     44     12      0.3227          0.6804E+06
   3738      1     44     13      0.3002          0.6804E+06
   3739      1     44     14      0.2776          0.6804E+06
   3740      1     44     15      0.2495          0.6804E+06
   3741      1     44     16      0.2232          0.6804E+06
   3742      1     44     17      0.1919          0.6804E+06
   3743      1     44     18      0.1586          0.6804E+06
   3744      1     44     19      0.1286          0.6804E+06
   3745      1     44     20      0.9548E-01      0.6804E+06
   3746      1     44     21      0.6861E-01      0.6804E+06
   3747      1     44     22      0.5639E-01      0.6804E+06
   3748      1     44     23      0.5424E-01      0.6804E+06
   3749      1     44     24      0.5758E-01      0.6804E+06
   3750      1     44     25      0.6075E-01      0.6804E+06
   3751      1     44     58     -0.5545E-01      0.6804E+06
   3752      1     44     59     -0.5118E-01      0.6804E+06
   3753      1     44     60       0.000          0.6804E+06
   3754      1     44     61       0.000          0.6804E+06
   3755      1     44     62       0.000          0.6804E+06
   3756      1     44     63       0.000          0.6804E+06
   3757      1     44     64       0.000          0.6804E+06
   3758      1     44     65       0.000          0.6804E+06
   3759      1     44     66       0.000          0.6804E+06
   3760      1     44     67       0.000          0.6804E+06
   3761      1     44     68       0.000          0.6804E+06
   3762      1     44     69       0.000          0.6804E+06
   3763      1     44     70       0.000          0.6804E+06
   3764      1     44     71       0.000          0.6804E+06
   3765      1     44     72       0.000          0.6804E+06
   3766      1     44     73       0.000          0.6804E+06
   3767      1     44     74       0.000          0.6804E+06
   3768      1     44     75       0.000          0.6804E+06
   3769      1     44     76       0.000          0.6804E+06
   3770      1     44     77       0.000          0.6804E+06
   3771      1     44     78       0.000          0.6804E+06
   3772      1     44     79      0.9758E-02      0.6804E+06
   3773      1     44     80      0.2919E-01      0.6804E+06
   3774      1     44     81      0.4648E-01      0.6804E+06
   3775      1     44     82      0.5915E-01      0.6804E+06
   3776      1     44     83      0.6663E-01      0.6804E+06
   3777      1     44     84      0.7079E-01      0.6804E+06
   3778      1     44     85      0.7158E-01      0.6804E+06
   3779      1     44     86      0.7042E-01      0.6804E+06
   3780      1     44     87      0.6816E-01      0.6804E+06
   3781      1     44     88      0.6618E-01      0.6804E+06
   3782      1     44     89      0.6466E-01      0.6804E+06
   3783      1     44     90      0.6404E-01      0.6804E+06
   3784      1     44     91      0.6382E-01      0.6804E+06
   3785      1     44     92      0.6360E-01      0.6804E+06
   3786      1     44     93      0.6335E-01      0.6804E+06
   3787      1     44     94      0.6301E-01      0.6804E+06
   3788      1     44     95      0.6268E-01      0.6804E+06
   3789      1     44     96      0.6252E-01      0.6804E+06
   3790      1     44     97      0.6256E-01      0.6804E+06
   3791      1     44     98      0.6314E-01      0.6804E+06
   3792      1     44     99      0.6399E-01      0.6804E+06
   3793      1     44    100      0.6485E-01      0.6804E+06
   3794      1     45      1      0.6309          0.6804E+06
   3795      1     45      2      0.5825          0.6804E+06
   3796      1     45      3      0.5394          0.6804E+06
   3797      1     45      4      0.4919          0.6804E+06
   3798      1     45      5      0.4508          0.6804E+06
   3799      1     45      6      0.4237          0.6804E+06
   3800      1     45      7      0.4003          0.6804E+06
   3801      1     45      8      0.3816          0.6804E+06
   3802      1     45      9      0.3674          0.6804E+06
   3803      1     45     10      0.3522          0.6804E+06
   3804      1     45     11      0.3385          0.6804E+06
   3805      1     45     12      0.3211          0.6804E+06
   3806      1     45     13      0.3000          0.6804E+06
   3807      1     45     14      0.2785          0.6804E+06
   3808      1     45     15      0.2514          0.6804E+06
   3809      1     45     16      0.2259          0.6804E+06
   3810      1     45     17      0.1956          0.6804E+06
   3811      1     45     18      0.1639          0.6804E+06
   3812      1     45     19      0.1352          0.6804E+06
   3813      1     45     20      0.1040          0.6804E+06
   3814      1     45     21      0.8058E-01      0.6804E+06
   3815      1     45     22      0.6985E-01      0.6804E+06
   3816      1     45     23      0.6611E-01      0.6804E+06
   3817      1     45     24      0.6714E-01      0.6804E+06
   3818      1     45     25      0.6874E-01      0.6804E+06
   3819      1     45     58     -0.5572E-01      0.6804E+06
   3820      1     45     59     -0.5058E-01      0.6804E+06
   3821      1     45     60       0.000          0.6804E+06
   3822      1     45     61       0.000          0.6804E+06
   3823      1     45     62       0.000          0.6804E+06
   3824      1     45     63       0.000          0.6804E+06
   3825      1     45     64       0.000          0.6804E+06
   3826      1     45     65       0.000          0.6804E+06
   3827      1     45     66       0.000          0.6804E+06
   3828      1     45     67       0.000          0.6804E+06
   3829      1     45     68       0.000          0.6804E+06
   3830      1     45     69       0.000          0.6804E+06
   3831      1     45     70       0.000          0.6804E+06
   3832      1     45     71       0.000          0.6804E+06
   3833      1     45     72       0.000          0.6804E+06
   3834      1     45     73       0.000          0.6804E+06
   3835      1     45     74       0.000          0.6804E+06
   3836      1     45     75       0.000          0.6804E+06
   3837      1     45     76       0.000          0.6804E+06
   3838      1     45     77       0.000          0.6804E+06
   3839      1     45     78      0.8691E-02      0.6804E+06
   3840      1     45     79      0.2846E-01      0.6804E+06
   3841      1     45     80      0.4638E-01      0.6804E+06
   3842      1     45     81      0.6039E-01      0.6804E+06
   3843      1     45     82      0.6919E-01      0.6804E+06
   3844      1     45     83      0.7359E-01      0.6804E+06
   3845      1     45     84      0.7522E-01      0.6804E+06
   3846      1     45     85      0.7465E-01      0.6804E+06
   3847      1     45     86      0.7222E-01      0.6804E+06
   3848      1     45     87      0.6868E-01      0.6804E+06
   3849      1     45     88      0.6579E-01      0.6804E+06
   3850      1     45     89      0.6454E-01      0.6804E+06
   3851      1     45     90      0.6439E-01      0.6804E+06
   3852      1     45     91      0.6441E-01      0.6804E+06
   3853      1     45     92      0.6419E-01      0.6804E+06
   3854      1     45     93      0.6374E-01      0.6804E+06
   3855      1     45     94      0.6307E-01      0.6804E+06
   3856      1     45     95      0.6265E-01      0.6804E+06
   3857      1     45     96      0.6259E-01      0.6804E+06
   3858      1     45     97      0.6267E-01      0.6804E+06
   3859      1     45     98      0.6335E-01      0.6804E+06
   3860      1     45     99      0.6438E-01      0.6804E+06
   3861      1     45    100      0.6549E-01      0.6804E+06
   3862      1     46      1      0.6333          0.6804E+06
   3863      1     46      2      0.5811          0.6804E+06
   3864      1     46      3      0.5343          0.6804E+06
   3865      1     46      4      0.4823          0.6804E+06
   3866      1     46      5      0.4381          0.6804E+06
   3867      1     46      6      0.4111          0.6804E+06
   3868      1     46      7      0.3899          0.6804E+06
   3869      1     46      8      0.3733          0.6804E+06
   3870      1     46      9      0.3609          0.6804E+06
   3871      1     46     10      0.3478          0.6804E+06
   3872      1     46     11      0.3360          0.6804E+06
   3873      1     46     12      0.3208          0.6804E+06
   3874      1     46     13      0.3008          0.6804E+06
   3875      1     46     14      0.2799          0.6804E+06
   3876      1     46     15      0.2535          0.6804E+06
   3877      1     46     16      0.2288          0.6804E+06
   3878      1     46     17      0.1991          0.6804E+06
   3879      1     46     18      0.1679          0.6804E+06
   3880      1     46     19      0.1400          0.6804E+06
   3881      1     46     20      0.1101          0.6804E+06
   3882      1     46     21      0.8840E-01      0.6804E+06
   3883      1     46     22      0.7844E-01      0.6804E+06
   3884      1     46     23      0.7441E-01      0.6804E+06
   3885      1     46     24      0.7467E-01      0.6804E+06
   3886      1     46     58     -0.5501E-01      0.6804E+06
   3887      1     46     59     -0.5001E-01      0.6804E+06
   3888      1     46     60       0.000          0.6804E+06
   3889      1     46     61       0.000          0.6804E+06
   3890      1     46     62       0.000          0.6804E+06
   3891      1     46     63       0.000          0.6804E+06
   3892      1     46     64       0.000          0.6804E+06
   3893      1     46     65       0.000          0.6804E+06
   3894      1     46     66       0.000          0.6804E+06
   3895      1     46     67       0.000          0.6804E+06
   3896      1     46     68       0.000          0.6804E+06
   3897      1     46     69       0.000          0.6804E+06
   3898      1     46     70       0.000          0.6804E+06
   3899      1     46     71       0.000          0.6804E+06
   3900      1     46     72       0.000          0.6804E+06
   3901      1     46     73       0.000          0.6804E+06
   3902      1     46     74       0.000          0.6804E+06
   3903      1     46     75       0.000          0.6804E+06
   3904      1     46     76       0.000          0.6804E+06
   3905      1     46     77      0.7908E-02      0.6804E+06
   3906      1     46     78      0.2555E-01      0.6804E+06
   3907      1     46     79      0.4599E-01      0.6804E+06
   3908      1     46     80      0.6374E-01      0.6804E+06
   3909      1     46     81      0.7417E-01      0.6804E+06
   3910      1     46     82      0.7869E-01      0.6804E+06
   3911      1     46     83      0.8019E-01      0.6804E+06
   3912      1     46     84      0.7972E-01      0.6804E+06
   3913      1     46     85      0.7811E-01      0.6804E+06
   3914      1     46     86      0.7472E-01      0.6804E+06
   3915      1     46     87      0.7008E-01      0.6804E+06
   3916      1     46     88      0.6631E-01      0.6804E+06
   3917      1     46     89      0.6561E-01      0.6804E+06
   3918      1     46     90      0.6593E-01      0.6804E+06
   3919      1     46     91      0.6608E-01      0.6804E+06
   3920      1     46     92      0.6569E-01      0.6804E+06
   3921      1     46     93      0.6435E-01      0.6804E+06
   3922      1     46     94      0.6333E-01      0.6804E+06
   3923      1     46     95      0.6289E-01      0.6804E+06
   3924      1     46     96      0.6277E-01      0.6804E+06
   3925      1     46     97      0.6300E-01      0.6804E+06
   3926      1     46     98      0.6365E-01      0.6804E+06
   3927      1     46     99      0.6472E-01      0.6804E+06
   3928      1     46    100      0.6612E-01      0.6804E+06
   3929      1     47      1      0.6372          0.6804E+06
   3930      1     47      2      0.5806          0.6804E+06
   3931      1     47      3      0.5303          0.6804E+06
   3932      1     47      4      0.4750          0.6804E+06
   3933      1     47      5      0.4283          0.6804E+06
   3934      1     47      6      0.4004          0.6804E+06
   3935      1     47      7      0.3800          0.6804E+06
   3936      1     47      8      0.3647          0.6804E+06
   3937      1     47      9      0.3538          0.6804E+06
   3938      1     47     10      0.3428          0.6804E+06
   3939      1     47     11      0.3333          0.6804E+06
   3940      1     47     12      0.3206          0.6804E+06
   3941      1     47     13      0.3020          0.6804E+06
   3942      1     47     14      0.2818          0.6804E+06
   3943      1     47     15      0.2562          0.6804E+06
   3944      1     47     16      0.2323          0.6804E+06
   3945      1     47     17      0.2032          0.6804E+06
   3946      1     47     18      0.1722          0.6804E+06
   3947      1     47     19      0.1443          0.6804E+06
   3948      1     47     20      0.1142          0.6804E+06
   3949      1     47     21      0.9314E-01      0.6804E+06
   3950      1     47     22      0.8448E-01      0.6804E+06
   3951      1     47     23      0.8120E-01      0.6804E+06
   3952      1     47     24      0.8104E-01      0.6804E+06
   3953      1     47     58     -0.5369E-01      0.6804E+06
   3954      1     47     59     -0.5154E-01      0.6804E+06
   3955      1     47     60       0.000          0.6804E+06
   3956      1     47     61       0.000          0.6804E+06
   3957      1     47     62       0.000          0.6804E+06
   3958      1     47     63       0.000          0.6804E+06
   3959      1     47     64       0.000          0.6804E+06
   3960      1     47     65       0.000          0.6804E+06
   3961      1     47     66       0.000          0.6804E+06
   3962      1     47     67       0.000          0.6804E+06
   3963      1     47     68       0.000          0.6804E+06
   3964      1     47     69       0.000          0.6804E+06
   3965      1     47     70       0.000          0.6804E+06
   3966      1     47     71       0.000          0.6804E+06
   3967      1     47     72       0.000          0.6804E+06
   3968      1     47     73       0.000          0.6804E+06
   3969      1     47     74       0.000          0.6804E+06
   3970      1     47     75       0.000          0.6804E+06
   3971      1     47     76       0.000          0.6804E+06
   3972      1     47     77      0.1581E-01      0.6804E+06
   3973      1     47     78      0.4050E-01      0.6804E+06
   3974      1     47     79      0.6354E-01      0.6804E+06
   3975      1     47     80      0.8014E-01      0.6804E+06
   3976      1     47     81      0.8707E-01      0.6804E+06
   3977      1     47     82      0.8779E-01      0.6804E+06
   3978      1     47     83      0.8671E-01      0.6804E+06
   3979      1     47     84      0.8422E-01      0.6804E+06
   3980      1     47     85      0.8200E-01      0.6804E+06
   3981      1     47     86      0.7849E-01      0.6804E+06
   3982      1     47     87      0.7391E-01      0.6804E+06
   3983      1     47     88      0.7041E-01      0.6804E+06
   3984      1     47     89      0.6935E-01      0.6804E+06
   3985      1     47     90      0.6884E-01      0.6804E+06
   3986      1     47     91      0.6821E-01      0.6804E+06
   3987      1     47     92      0.6723E-01      0.6804E+06
   3988      1     47     93      0.6591E-01      0.6804E+06
   3989      1     47     94      0.6462E-01      0.6804E+06
   3990      1     47     95      0.6372E-01      0.6804E+06
   3991      1     47     96      0.6328E-01      0.6804E+06
   3992      1     47     97      0.6335E-01      0.6804E+06
   3993      1     47     98      0.6391E-01      0.6804E+06
   3994      1     47     99      0.6510E-01      0.6804E+06
   3995      1     47    100      0.6690E-01      0.6804E+06
   3996      1     48      1      0.6411          0.6804E+06
   3997      1     48      2      0.5810          0.6804E+06
   3998      1     48      3      0.5283          0.6804E+06
   3999      1     48      4      0.4719          0.6804E+06
   4000      1     48      5      0.4251          0.6804E+06
   4001      1     48      6      0.3953          0.6804E+06
   4002      1     48      7      0.3723          0.6804E+06
   4003      1     48      8      0.3567          0.6804E+06
   4004      1     48      9      0.3469          0.6804E+06
   4005      1     48     10      0.3377          0.6804E+06
   4006      1     48     11      0.3297          0.6804E+06
   4007      1     48     12      0.3184          0.6804E+06
   4008      1     48     13      0.3018          0.6804E+06
   4009      1     48     14      0.2831          0.6804E+06
   4010      1     48     15      0.2587          0.6804E+06
   4011      1     48     16      0.2356          0.6804E+06
   4012      1     48     17      0.2078          0.6804E+06
   4013      1     48     18      0.1774          0.6804E+06
   4014      1     48     19      0.1486          0.6804E+06
   4015      1     48     20      0.1161          0.6804E+06
   4016      1     48     21      0.9436E-01      0.6804E+06
   4017      1     48     22      0.8738E-01      0.6804E+06
   4018      1     48     23      0.8581E-01      0.6804E+06
   4019      1     48     24      0.8545E-01      0.6804E+06
   4020      1     48     58     -0.4684E-01      0.6804E+06
   4021      1     48     59     -0.4970E-01      0.6804E+06
   4022      1     48     60       0.000          0.6804E+06
   4023      1     48     61       0.000          0.6804E+06
   4024      1     48     62       0.000          0.6804E+06
   4025      1     48     63       0.000          0.6804E+06
   4026      1     48     64       0.000          0.6804E+06
   4027      1     48     65       0.000          0.6804E+06
   4028      1     48     66       0.000          0.6804E+06
   4029      1     48     67       0.000          0.6804E+06
   4030      1     48     68       0.000          0.6804E+06
   4031      1     48     69       0.000          0.6804E+06
   4032      1     48     70       0.000          0.6804E+06
   4033      1     48     71       0.000          0.6804E+06
   4034      1     48     72       0.000          0.6804E+06
   4035      1     48     73       0.000          0.6804E+06
   4036      1     48     74       0.000          0.6804E+06
   4037      1     48     75       0.000          0.6804E+06
   4038      1     48     76       0.000          0.6804E+06
   4039      1     48     77      0.2057E-01      0.6804E+06
   4040      1     48     78      0.5094E-01      0.6804E+06
   4041      1     48     79      0.7419E-01      0.6804E+06
   4042      1     48     80      0.8650E-01      0.6804E+06
   4043      1     48     81      0.9218E-01      0.6804E+06
   4044      1     48     82      0.9262E-01      0.6804E+06
   4045      1     48     83      0.9068E-01      0.6804E+06
   4046      1     48     84      0.8726E-01      0.6804E+06
   4047      1     48     85      0.8525E-01      0.6804E+06
   4048      1     48     86      0.8264E-01      0.6804E+06
   4049      1     48     87      0.7914E-01      0.6804E+06
   4050      1     48     88      0.7656E-01      0.6804E+06
   4051      1     48     89      0.7440E-01      0.6804E+06
   4052      1     48     90      0.7256E-01      0.6804E+06
   4053      1     48     91      0.7109E-01      0.6804E+06
   4054      1     48     92      0.6944E-01      0.6804E+06
   4055      1     48     93      0.6789E-01      0.6804E+06
   4056      1     48     94      0.6611E-01      0.6804E+06
   4057      1     48     95      0.6456E-01      0.6804E+06
   4058      1     48     96      0.6361E-01      0.6804E+06
   4059      1     48     97      0.6340E-01      0.6804E+06
   4060      1     48     98      0.6396E-01      0.6804E+06
   4061      1     48     99      0.6543E-01      0.6804E+06
   4062      1     48    100      0.6775E-01      0.6804E+06
   4063      1     49      1      0.6445          0.6804E+06
   4064      1     49      2      0.5812          0.6804E+06
   4065      1     49      3      0.5260          0.6804E+06
   4066      1     49      4      0.4680          0.6804E+06
   4067      1     49      5      0.4202          0.6804E+06
   4068      1     49      6      0.3889          0.6804E+06
   4069      1     49      7      0.3645          0.6804E+06
   4070      1     49      8      0.3492          0.6804E+06
   4071      1     49      9      0.3404          0.6804E+06
   4072      1     49     10      0.3328          0.6804E+06
   4073      1     49     11      0.3263          0.6804E+06
   4074      1     49     12      0.3166          0.6804E+06
   4075      1     49     13      0.3015          0.6804E+06
   4076      1     49     14      0.2841          0.6804E+06
   4077      1     49     15      0.2606          0.6804E+06
   4078      1     49     16      0.2384          0.6804E+06
   4079      1     49     17      0.2125          0.6804E+06
   4080      1     49     18      0.1836          0.6804E+06
   4081      1     49     19      0.1544          0.6804E+06
   4082      1     49     20      0.1186          0.6804E+06
   4083      1     49     21      0.9563E-01      0.6804E+06
   4084      1     49     22      0.8942E-01      0.6804E+06
   4085      1     49     23      0.8890E-01      0.6804E+06
   4086      1     49     24      0.8791E-01      0.6804E+06
   4087      1     49     58     -0.3985E-01      0.6804E+06
   4088      1     49     59     -0.4826E-01      0.6804E+06
   4089      1     49     60       0.000          0.6804E+06
   4090      1     49     61       0.000          0.6804E+06
   4091      1     49     62       0.000          0.6804E+06
   4092      1     49     63       0.000          0.6804E+06
   4093      1     49     64       0.000          0.6804E+06
   4094      1     49     65       0.000          0.6804E+06
   4095      1     49     66       0.000          0.6804E+06
   4096      1     49     67       0.000          0.6804E+06
   4097      1     49     68       0.000          0.6804E+06
   4098      1     49     69       0.000          0.6804E+06
   4099      1     49     70       0.000          0.6804E+06
   4100      1     49     71       0.000          0.6804E+06
   4101      1     49     72       0.000          0.6804E+06
   4102      1     49     73       0.000          0.6804E+06
   4103      1     49     74       0.000          0.6804E+06
   4104      1     49     75       0.000          0.6804E+06
   4105      1     49     76       0.000          0.6804E+06
   4106      1     49     77      0.2617E-01      0.6804E+06
   4107      1     49     78      0.5977E-01      0.6804E+06
   4108      1     49     79      0.8224E-01      0.6804E+06
   4109      1     49     80      0.9056E-01      0.6804E+06
   4110      1     49     81      0.9371E-01      0.6804E+06
   4111      1     49     82      0.9331E-01      0.6804E+06
   4112      1     49     83      0.9132E-01      0.6804E+06
   4113      1     49     84      0.8868E-01      0.6804E+06
   4114      1     49     85      0.8744E-01      0.6804E+06
   4115      1     49     86      0.8587E-01      0.6804E+06
   4116      1     49     87      0.8338E-01      0.6804E+06
   4117      1     49     88      0.8144E-01      0.6804E+06
   4118      1     49     89      0.7867E-01      0.6804E+06
   4119      1     49     90      0.7617E-01      0.6804E+06
   4120      1     49     91      0.7440E-01      0.6804E+06
   4121      1     49     92      0.7222E-01      0.6804E+06
   4122      1     49     93      0.7004E-01      0.6804E+06
   4123      1     49     94      0.6758E-01      0.6804E+06
   4124      1     49     95      0.6541E-01      0.6804E+06
   4125      1     49     96      0.6392E-01      0.6804E+06
   4126      1     49     97      0.6339E-01      0.6804E+06
   4127      1     49     98      0.6404E-01      0.6804E+06
   4128      1     49     99      0.6595E-01      0.6804E+06
   4129      1     49    100      0.6881E-01      0.6804E+06
   4130      1     50      1      0.6484          0.6804E+06
   4131      1     50      2      0.5806          0.6804E+06
   4132      1     50      3      0.5216          0.6804E+06
   4133      1     50      4      0.4600          0.6804E+06
   4134      1     50      5      0.4096          0.6804E+06
   4135      1     50      6      0.3771          0.6804E+06
   4136      1     50      7      0.3532          0.6804E+06
   4137      1     50      8      0.3393          0.6804E+06
   4138      1     50      9      0.3323          0.6804E+06
   4139      1     50     10      0.3270          0.6804E+06
   4140      1     50     11      0.3229          0.6804E+06
   4141      1     50     12      0.3159          0.6804E+06
   4142      1     50     13      0.3022          0.6804E+06
   4143      1     50     14      0.2850          0.6804E+06
   4144      1     50     15      0.2614          0.6804E+06
   4145      1     50     16      0.2395          0.6804E+06
   4146      1     50     17      0.2147          0.6804E+06
   4147      1     50     18      0.1879          0.6804E+06
   4148      1     50     19      0.1614          0.6804E+06
   4149      1     50     20      0.1288          0.6804E+06
   4150      1     50     21      0.1070          0.6804E+06
   4151      1     50     22      0.9810E-01      0.6804E+06
   4152      1     50     23      0.9303E-01      0.6804E+06
   4153      1     50     24      0.8803E-01      0.6804E+06
   4154      1     50     25      0.7495E-01      0.6804E+06
   4155      1     50     58     -0.3243E-01      0.6804E+06
   4156      1     50     59       0.000          0.6804E+06
   4157      1     50     60       0.000          0.6804E+06
   4158      1     50     61       0.000          0.6804E+06
   4159      1     50     62       0.000          0.6804E+06
   4160      1     50     63       0.000          0.6804E+06
   4161      1     50     64       0.000          0.6804E+06
   4162      1     50     65       0.000          0.6804E+06
   4163      1     50     66       0.000          0.6804E+06
   4164      1     50     67       0.000          0.6804E+06
   4165      1     50     68       0.000          0.6804E+06
   4166      1     50     69       0.000          0.6804E+06
   4167      1     50     70       0.000          0.6804E+06
   4168      1     50     71       0.000          0.6804E+06
   4169      1     50     72       0.000          0.6804E+06
   4170      1     50     73       0.000          0.6804E+06
   4171      1     50     74       0.000          0.6804E+06
   4172      1     50     75       0.000          0.6804E+06
   4173      1     50     76       0.000          0.6804E+06
   4174      1     50     77      0.2622E-01      0.6804E+06
   4175      1     50     78      0.6102E-01      0.6804E+06
   4176      1     50     79      0.8206E-01      0.6804E+06
   4177      1     50     80      0.8855E-01      0.6804E+06
   4178      1     50     81      0.9105E-01      0.6804E+06
   4179      1     50     82      0.9102E-01      0.6804E+06
   4180      1     50     83      0.8983E-01      0.6804E+06
   4181      1     50     84      0.8921E-01      0.6804E+06
   4182      1     50     85      0.8859E-01      0.6804E+06
   4183      1     50     86      0.8761E-01      0.6804E+06
   4184      1     50     87      0.8664E-01      0.6804E+06
   4185      1     50     88      0.8608E-01      0.6804E+06
   4186      1     50     89      0.8334E-01      0.6804E+06
   4187      1     50     90      0.8048E-01      0.6804E+06
   4188      1     50     91      0.7860E-01      0.6804E+06
   4189      1     50     92      0.7598E-01      0.6804E+06
   4190      1     50     93      0.7338E-01      0.6804E+06
   4191      1     50     94      0.7021E-01      0.6804E+06
   4192      1     50     95      0.6711E-01      0.6804E+06
   4193      1     50     96      0.6480E-01      0.6804E+06
   4194      1     50     97      0.6365E-01      0.6804E+06
   4195      1     50     98      0.6446E-01      0.6804E+06
   4196      1     50     99      0.6716E-01      0.6804E+06
   4197      1     50    100      0.7078E-01      0.6804E+06
   4198      1     51      1      0.6524          0.6804E+06
   4199      1     51      2      0.5785          0.6804E+06
   4200      1     51      3      0.5145          0.6804E+06
   4201      1     51      4      0.4479          0.6804E+06
   4202      1     51      5      0.3935          0.6804E+06
   4203      1     51      6      0.3598          0.6804E+06
   4204      1     51      7      0.3389          0.6804E+06
   4205      1     51      8      0.3280          0.6804E+06
   4206      1     51      9      0.3233          0.6804E+06
   4207      1     51     10      0.3208          0.6804E+06
   4208      1     51     11      0.3194          0.6804E+06
   4209      1     51     12      0.3158          0.6804E+06
   4210      1     51     13      0.3028          0.6804E+06
   4211      1     51     14      0.2848          0.6804E+06
   4212      1     51     15      0.2597          0.6804E+06
   4213      1     51     16      0.2374          0.6804E+06
   4214      1     51     17      0.2126          0.6804E+06
   4215      1     51     18      0.1872          0.6804E+06
   4216      1     51     19      0.1642          0.6804E+06
   4217      1     51     20      0.1377          0.6804E+06
   4218      1     51     21      0.1180          0.6804E+06
   4219      1     51     22      0.1067          0.6804E+06
   4220      1     51     23      0.9668E-01      0.6804E+06
   4221      1     51     24      0.8690E-01      0.6804E+06
   4222      1     51     25      0.6720E-01      0.6804E+06
   4223      1     51     59       0.000          0.6804E+06
   4224      1     51     60       0.000          0.6804E+06
   4225      1     51     61       0.000          0.6804E+06
   4226      1     51     62       0.000          0.6804E+06
   4227      1     51     63       0.000          0.6804E+06
   4228      1     51     64       0.000          0.6804E+06
   4229      1     51     65       0.000          0.6804E+06
   4230      1     51     66       0.000          0.6804E+06
   4231      1     51     67       0.000          0.6804E+06
   4232      1     51     68       0.000          0.6804E+06
   4233      1     51     69       0.000          0.6804E+06
   4234      1     51     70       0.000          0.6804E+06
   4235      1     51     71       0.000          0.6804E+06
   4236      1     51     72       0.000          0.6804E+06
   4237      1     51     73       0.000          0.6804E+06
   4238      1     51     74       0.000          0.6804E+06
   4239      1     51     75       0.000          0.6804E+06
   4240      1     51     76       0.000          0.6804E+06
   4241      1     51     77      0.1992E-01      0.6804E+06
   4242      1     51     78      0.5330E-01      0.6804E+06
   4243      1     51     79      0.7253E-01      0.6804E+06
   4244      1     51     80      0.7934E-01      0.6804E+06
   4245      1     51     81      0.8335E-01      0.6804E+06
   4246      1     51     82      0.8528E-01      0.6804E+06
   4247      1     51     83      0.8566E-01      0.6804E+06
   4248      1     51     84      0.8673E-01      0.6804E+06
   4249      1     51     85      0.8706E-01      0.6804E+06
   4250      1     51     86      0.8713E-01      0.6804E+06
   4251      1     51     87      0.8749E-01      0.6804E+06
   4252      1     51     88      0.8754E-01      0.6804E+06
   4253      1     51     89      0.8595E-01      0.6804E+06
   4254      1     51     90      0.8414E-01      0.6804E+06
   4255      1     51     91      0.8279E-01      0.6804E+06
   4256      1     51     92      0.8023E-01      0.6804E+06
   4257      1     51     93      0.7771E-01      0.6804E+06
   4258      1     51     94      0.7434E-01      0.6804E+06
   4259      1     51     95      0.7050E-01      0.6804E+06
   4260      1     51     96      0.6706E-01      0.6804E+06
   4261      1     51     97      0.6477E-01      0.6804E+06
   4262      1     51     98      0.6573E-01      0.6804E+06
   4263      1     51     99      0.6979E-01      0.6804E+06
   4264      1     51    100      0.7431E-01      0.6804E+06
   4265      1     52      1      0.6540          0.6804E+06
   4266      1     52      2      0.5751          0.6804E+06
   4267      1     52      3      0.5075          0.6804E+06
   4268      1     52      4      0.4366          0.6804E+06
   4269      1     52      5      0.3773          0.6804E+06
   4270      1     52      6      0.3424          0.6804E+06
   4271      1     52      7      0.3261          0.6804E+06
   4272      1     52      8      0.3179          0.6804E+06
   4273      1     52      9      0.3149          0.6804E+06
   4274      1     52     10      0.3143          0.6804E+06
   4275      1     52     11      0.3148          0.6804E+06
   4276      1     52     12      0.3137          0.6804E+06
   4277      1     52     13      0.3010          0.6804E+06
   4278      1     52     14      0.2822          0.6804E+06
   4279      1     52     15      0.2558          0.6804E+06
   4280      1     52     16      0.2327          0.6804E+06
   4281      1     52     17      0.2073          0.6804E+06
   4282      1     52     18      0.1829          0.6804E+06
   4283      1     52     19      0.1628          0.6804E+06
   4284      1     52     20      0.1417          0.6804E+06
   4285      1     52     21      0.1245          0.6804E+06
   4286      1     52     22      0.1123          0.6804E+06
   4287      1     52     23      0.9941E-01      0.6804E+06
   4288      1     52     24      0.8616E-01      0.6804E+06
   4289      1     52     25      0.6153E-01      0.6804E+06
   4290      1     52     26      0.1179E-01      0.6804E+06
   4291      1     52     60       0.000          0.6804E+06
   4292      1     52     61       0.000          0.6804E+06
   4293      1     52     62       0.000          0.6804E+06
   4294      1     52     63       0.000          0.6804E+06
   4295      1     52     64       0.000          0.6804E+06
   4296      1     52     65       0.000          0.6804E+06
   4297      1     52     66       0.000          0.6804E+06
   4298      1     52     67       0.000          0.6804E+06
   4299      1     52     68       0.000          0.6804E+06
   4300      1     52     69       0.000          0.6804E+06
   4301      1     52     70       0.000          0.6804E+06
   4302      1     52     71       0.000          0.6804E+06
   4303      1     52     72       0.000          0.6804E+06
   4304      1     52     73       0.000          0.6804E+06
   4305      1     52     74       0.000          0.6804E+06
   4306      1     52     75       0.000          0.6804E+06
   4307      1     52     76       0.000          0.6804E+06
   4308      1     52     77      0.1572E-01      0.6804E+06
   4309      1     52     78      0.4284E-01      0.6804E+06
   4310      1     52     79      0.5901E-01      0.6804E+06
   4311      1     52     80      0.6666E-01      0.6804E+06
   4312      1     52     81      0.7299E-01      0.6804E+06
   4313      1     52     82      0.7746E-01      0.6804E+06
   4314      1     52     83      0.7968E-01      0.6804E+06
   4315      1     52     84      0.8252E-01      0.6804E+06
   4316      1     52     85      0.8423E-01      0.6804E+06
   4317      1     52     86      0.8557E-01      0.6804E+06
   4318      1     52     87      0.8694E-01      0.6804E+06
   4319      1     52     88      0.8758E-01      0.6804E+06
   4320      1     52     89      0.8741E-01      0.6804E+06
   4321      1     52     90      0.8709E-01      0.6804E+06
   4322      1     52     91      0.8682E-01      0.6804E+06
   4323      1     52     92      0.8502E-01      0.6804E+06
   4324      1     52     93      0.8294E-01      0.6804E+06
   4325      1     52     94      0.7981E-01      0.6804E+06
   4326      1     52     95      0.7585E-01      0.6804E+06
   4327      1     52     96      0.7188E-01      0.6804E+06
   4328      1     52     97      0.6865E-01      0.6804E+06
   4329      1     52     98      0.6960E-01      0.6804E+06
   4330      1     52     99      0.7478E-01      0.6804E+06
   4331      1     52    100      0.7955E-01      0.6804E+06
   4332      1     53      1      0.6516          0.6804E+06
   4333      1     53      2      0.5689          0.6804E+06
   4334      1     53      3      0.4989          0.6804E+06
   4335      1     53      4      0.4266          0.6804E+06
   4336      1     53      5      0.3680          0.6804E+06
   4337      1     53      6      0.3333          0.6804E+06
   4338      1     53      7      0.3159          0.6804E+06
   4339      1     53      8      0.3079          0.6804E+06
   4340      1     53      9      0.3056          0.6804E+06
   4341      1     53     10      0.3056          0.6804E+06
   4342      1     53     11      0.3059          0.6804E+06
   4343      1     53     12      0.3033          0.6804E+06
   4344      1     53     13      0.2912          0.6804E+06
   4345      1     53     14      0.2739          0.6804E+06
   4346      1     53     15      0.2486          0.6804E+06
   4347      1     53     16      0.2249          0.6804E+06
   4348      1     53     17      0.1988          0.6804E+06
   4349      1     53     18      0.1759          0.6804E+06
   4350      1     53     19      0.1590          0.6804E+06
   4351      1     53     20      0.1426          0.6804E+06
   4352      1     53     21      0.1282          0.6804E+06
   4353      1     53     22      0.1165          0.6804E+06
   4354      1     53     23      0.1024          0.6804E+06
   4355      1     53     24      0.8684E-01      0.6804E+06
   4356      1     53     25      0.5886E-01      0.6804E+06
   4357      1     53     26      0.2275E-01      0.6804E+06
   4358      1     53     27     -0.4083E-01      0.6804E+06
   4359      1     53     60       0.000          0.6804E+06
   4360      1     53     61       0.000          0.6804E+06
   4361      1     53     62       0.000          0.6804E+06
   4362      1     53     63       0.000          0.6804E+06
   4363      1     53     64       0.000          0.6804E+06
   4364      1     53     65       0.000          0.6804E+06
   4365      1     53     66       0.000          0.6804E+06
   4366      1     53     67       0.000          0.6804E+06
   4367      1     53     68       0.000          0.6804E+06
   4368      1     53     69       0.000          0.6804E+06
   4369      1     53     70       0.000          0.6804E+06
   4370      1     53     71       0.000          0.6804E+06
   4371      1     53     72       0.000          0.6804E+06
   4372      1     53     73       0.000          0.6804E+06
   4373      1     53     74       0.000          0.6804E+06
   4374      1     53     75       0.000          0.6804E+06
   4375      1     53     76       0.000          0.6804E+06
   4376      1     53     77      0.3067E-01      0.6804E+06
   4377      1     53     78      0.3098E-01      0.6804E+06
   4378      1     53     79      0.4053E-01      0.6804E+06
   4379      1     53     80      0.4985E-01      0.6804E+06
   4380      1     53     81      0.5936E-01      0.6804E+06
   4381      1     53     82      0.6622E-01      0.6804E+06
   4382      1     53     83      0.7034E-01      0.6804E+06
   4383      1     53     84      0.7698E-01      0.6804E+06
   4384      1     53     85      0.8097E-01      0.6804E+06
   4385      1     53     86      0.8344E-01      0.6804E+06
   4386      1     53     87      0.8571E-01      0.6804E+06
   4387      1     53     88      0.8765E-01      0.6804E+06
   4388      1     53     89      0.8923E-01      0.6804E+06
   4389      1     53     90      0.9073E-01      0.6804E+06
   4390      1     53     91      0.9206E-01      0.6804E+06
   4391      1     53     92      0.9175E-01      0.6804E+06
   4392      1     53     93      0.9055E-01      0.6804E+06
   4393      1     53     94      0.8819E-01      0.6804E+06
   4394      1     53     95      0.8493E-01      0.6804E+06
   4395      1     53     96      0.8153E-01      0.6804E+06
   4396      1     53     97      0.7871E-01      0.6804E+06
   4397      1     53     98      0.7956E-01      0.6804E+06
   4398      1     53     99      0.8438E-01      0.6804E+06
   4399      1     53    100      0.8848E-01      0.6804E+06
   4400      1     54      1      0.6457          0.6804E+06
   4401      1     54      2      0.5612          0.6804E+06
   4402      1     54      3      0.4902          0.6804E+06
   4403      1     54      4      0.4186          0.6804E+06
   4404      1     54      5      0.3628          0.6804E+06
   4405      1     54      6      0.3289          0.6804E+06
   4406      1     54      7      0.3089          0.6804E+06
   4407      1     54      8      0.3004          0.6804E+06
   4408      1     54      9      0.2982          0.6804E+06
   4409      1     54     10      0.2983          0.6804E+06
   4410      1     54     11      0.2982          0.6804E+06
   4411      1     54     12      0.2944          0.6804E+06
   4412      1     54     13      0.2827          0.6804E+06
   4413      1     54     14      0.2663          0.6804E+06
   4414      1     54     15      0.2418          0.6804E+06
   4415      1     54     16      0.2176          0.6804E+06
   4416      1     54     17      0.1901          0.6804E+06
   4417      1     54     18      0.1683          0.6804E+06
   4418      1     54     19      0.1550          0.6804E+06
   4419      1     54     20      0.1420          0.6804E+06
   4420      1     54     21      0.1300          0.6804E+06
   4421      1     54     22      0.1195          0.6804E+06
   4422      1     54     23      0.1059          0.6804E+06
   4423      1     54     24      0.9019E-01      0.6804E+06
   4424      1     54     25      0.6155E-01      0.6804E+06
   4425      1     54     26      0.2269E-01      0.6804E+06
   4426      1     54     27     -0.3953E-01      0.6804E+06
   4427      1     54     60       0.000          0.6804E+06
   4428      1     54     61       0.000          0.6804E+06
   4429      1     54     62       0.000          0.6804E+06
   4430      1     54     63       0.000          0.6804E+06
   4431      1     54     64       0.000          0.6804E+06
   4432      1     54     65       0.000          0.6804E+06
   4433      1     54     66       0.000          0.6804E+06
   4434      1     54     67       0.000          0.6804E+06
   4435      1     54     68       0.000          0.6804E+06
   4436      1     54     69       0.000          0.6804E+06
   4437      1     54     70       0.000          0.6804E+06
   4438      1     54     71       0.000          0.6804E+06
   4439      1     54     72       0.000          0.6804E+06
   4440      1     54     73       0.000          0.6804E+06
   4441      1     54     74       0.000          0.6804E+06
   4442      1     54     75       0.000          0.6804E+06
   4443      1     54     76       0.000          0.6804E+06
   4444      1     54     77       0.000          0.6804E+06
   4445      1     54     78      0.5129E-02      0.6804E+06
   4446      1     54     79      0.1917E-01      0.6804E+06
   4447      1     54     80      0.3284E-01      0.6804E+06
   4448      1     54     81      0.4660E-01      0.6804E+06
   4449      1     54     82      0.5659E-01      0.6804E+06
   4450      1     54     83      0.6343E-01      0.6804E+06
   4451      1     54     84      0.7243E-01      0.6804E+06
   4452      1     54     85      0.7830E-01      0.6804E+06
   4453      1     54     86      0.8232E-01      0.6804E+06
   4454      1     54     87      0.8526E-01      0.6804E+06
   4455      1     54     88      0.8826E-01      0.6804E+06
   4456      1     54     89      0.9161E-01      0.6804E+06
   4457      1     54     90      0.9485E-01      0.6804E+06
   4458      1     54     91      0.9743E-01      0.6804E+06
   4459      1     54     92      0.9865E-01      0.6804E+06
   4460      1     54     93      0.9860E-01      0.6804E+06
   4461      1     54     94      0.9746E-01      0.6804E+06
   4462      1     54     95      0.9557E-01      0.6804E+06
   4463      1     54     96      0.9364E-01      0.6804E+06
   4464      1     54     97      0.9232E-01      0.6804E+06
   4465      1     54     98      0.9299E-01      0.6804E+06
   4466      1     54     99      0.9595E-01      0.6804E+06
   4467      1     54    100      0.9876E-01      0.6804E+06
   4468      1     55      1      0.6371          0.6804E+06
   4469      1     55      2      0.5506          0.6804E+06
   4470      1     55      3      0.4782          0.6804E+06
   4471      1     55      4      0.4064          0.6804E+06
   4472      1     55      5      0.3519          0.6804E+06
   4473      1     55      6      0.3198          0.6804E+06
   4474      1     55      7      0.3006          0.6804E+06
   4475      1     55      8      0.2928          0.6804E+06
   4476      1     55      9      0.2910          0.6804E+06
   4477      1     55     10      0.2914          0.6804E+06
   4478      1     55     11      0.2914          0.6804E+06
   4479      1     55     12      0.2875          0.6804E+06
   4480      1     55     13      0.2758          0.6804E+06
   4481      1     55     14      0.2597          0.6804E+06
   4482      1     55     15      0.2356          0.6804E+06
   4483      1     55     16      0.2117          0.6804E+06
   4484      1     55     17      0.1848          0.6804E+06
   4485      1     55     18      0.1648          0.6804E+06
   4486      1     55     19      0.1541          0.6804E+06
   4487      1     55     20      0.1429          0.6804E+06
   4488      1     55     21      0.1329          0.6804E+06
   4489      1     55     22      0.1240          0.6804E+06
   4490      1     55     23      0.1118          0.6804E+06
   4491      1     55     24      0.9718E-01      0.6804E+06
   4492      1     55     25      0.7122E-01      0.6804E+06
   4493      1     55     26      0.3151E-01      0.6804E+06
   4494      1     55     27     -0.1204E-01      0.6804E+06
   4495      1     55     60       0.000          0.6804E+06
   4496      1     55     61       0.000          0.6804E+06
   4497      1     55     62       0.000          0.6804E+06
   4498      1     55     63       0.000          0.6804E+06
   4499      1     55     64       0.000          0.6804E+06
   4500      1     55     65       0.000          0.6804E+06
   4501      1     55     66       0.000          0.6804E+06
   4502      1     55     67       0.000          0.6804E+06
   4503      1     55     68       0.000          0.6804E+06
   4504      1     55     69       0.000          0.6804E+06
   4505      1     55     70       0.000          0.6804E+06
   4506      1     55     71       0.000          0.6804E+06
   4507      1     55     72       0.000          0.6804E+06
   4508      1     55     73       0.000          0.6804E+06
   4509      1     55     74       0.000          0.6804E+06
   4510      1     55     75       0.000          0.6804E+06
   4511      1     55     76       0.000          0.6804E+06
   4512      1     55     77       0.000          0.6804E+06
   4513      1     55     78       0.000          0.6804E+06
   4514      1     55     79       0.000          0.6804E+06
   4515      1     55     80      0.1475E-01      0.6804E+06
   4516      1     55     81      0.3321E-01      0.6804E+06
   4517      1     55     82      0.4759E-01      0.6804E+06
   4518      1     55     83      0.5775E-01      0.6804E+06
   4519      1     55     84      0.6920E-01      0.6804E+06
   4520      1     55     85      0.7678E-01      0.6804E+06
   4521      1     55     86      0.8222E-01      0.6804E+06
   4522      1     55     87      0.8665E-01      0.6804E+06
   4523      1     55     88      0.9097E-01      0.6804E+06
   4524      1     55     89      0.9613E-01      0.6804E+06
   4525      1     55     90      0.1012          0.6804E+06
   4526      1     55     91      0.1052          0.6804E+06
   4527      1     55     92      0.1084          0.6804E+06
   4528      1     55     93      0.1098          0.6804E+06
   4529      1     55     94      0.1102          0.6804E+06
   4530      1     55     95      0.1099          0.6804E+06
   4531      1     55     96      0.1094          0.6804E+06
   4532      1     55     97      0.1092          0.6804E+06
   4533      1     55     98      0.1098          0.6804E+06
   4534      1     55     99      0.1116          0.6804E+06
   4535      1     55    100      0.1131          0.6804E+06
   4536      1     56      1      0.6312          0.6804E+06
   4537      1     56      2      0.5409          0.6804E+06
   4538      1     56      3      0.4642          0.6804E+06
   4539      1     56      4      0.3887          0.6804E+06
   4540      1     56      5      0.3345          0.6804E+06
   4541      1     56      6      0.3061          0.6804E+06
   4542      1     56      7      0.2913          0.6804E+06
   4543      1     56      8      0.2862          0.6804E+06
   4544      1     56      9      0.2857          0.6804E+06
   4545      1     56     10      0.2869          0.6804E+06
   4546      1     56     11      0.2876          0.6804E+06
   4547      1     56     12      0.2847          0.6804E+06
   4548      1     56     13      0.2729          0.6804E+06
   4549      1     56     14      0.2561          0.6804E+06
   4550      1     56     15      0.2319          0.6804E+06
   4551      1     56     16      0.2096          0.6804E+06
   4552      1     56     17      0.1859          0.6804E+06
   4553      1     56     18      0.1684          0.6804E+06
   4554      1     56     19      0.1589          0.6804E+06
   4555      1     56     20      0.1490          0.6804E+06
   4556      1     56     21      0.1399          0.6804E+06
   4557      1     56     22      0.1312          0.6804E+06
   4558      1     56     23      0.1194          0.6804E+06
   4559      1     56     24      0.1062          0.6804E+06
   4560      1     56     25      0.8524E-01      0.6804E+06
   4561      1     56     26      0.5596E-01      0.6804E+06
   4562      1     56     27      0.1974E-01      0.6804E+06
   4563      1     56     60       0.000          0.6804E+06
   4564      1     56     61       0.000          0.6804E+06
   4565      1     56     62       0.000          0.6804E+06
   4566      1     56     63       0.000          0.6804E+06
   4567      1     56     64       0.000          0.6804E+06
   4568      1     56     65       0.000          0.6804E+06
   4569      1     56     66       0.000          0.6804E+06
   4570      1     56     67       0.000          0.6804E+06
   4571      1     56     68       0.000          0.6804E+06
   4572      1     56     69       0.000          0.6804E+06
   4573      1     56     70       0.000          0.6804E+06
   4574      1     56     71       0.000          0.6804E+06
   4575      1     56     72       0.000          0.6804E+06
   4576      1     56     73       0.000          0.6804E+06
   4577      1     56     74       0.000          0.6804E+06
   4578      1     56     75       0.000          0.6804E+06
   4579      1     56     76       0.000          0.6804E+06
   4580      1     56     77       0.000          0.6804E+06
   4581      1     56     78       0.000          0.6804E+06
   4582      1     56     79       0.000          0.6804E+06
   4583      1     56     80      0.2085E-02      0.6804E+06
   4584      1     56     81      0.2358E-01      0.6804E+06
   4585      1     56     82      0.4190E-01      0.6804E+06
   4586      1     56     83      0.5476E-01      0.6804E+06
   4587      1     56     84      0.6855E-01      0.6804E+06
   4588      1     56     85      0.7777E-01      0.6804E+06
   4589      1     56     86      0.8464E-01      0.6804E+06
   4590      1     56     87      0.9097E-01      0.6804E+06
   4591      1     56     88      0.9667E-01      0.6804E+06
   4592      1     56     89      0.1034          0.6804E+06
   4593      1     56     90      0.1098          0.6804E+06
   4594      1     56     91      0.1150          0.6804E+06
   4595      1     56     92      0.1195          0.6804E+06
   4596      1     56     93      0.1222          0.6804E+06
   4597      1     56     94      0.1241          0.6804E+06
   4598      1     56     95      0.1254          0.6804E+06
   4599      1     56     96      0.1262          0.6804E+06
   4600      1     56     97      0.1269          0.6804E+06
   4601      1     56     98      0.1277          0.6804E+06
   4602      1     56     99      0.1290          0.6804E+06
   4603      1     56    100      0.1295          0.6804E+06
   4604      1     57      1      0.6304          0.6804E+06
   4605      1     57      2      0.5364          0.6804E+06
   4606      1     57      3      0.4541          0.6804E+06
   4607      1     57      4      0.3704          0.6804E+06
   4608      1     57      5      0.3153          0.6804E+06
   4609      1     57      6      0.2940          0.6804E+06
   4610      1     57      7      0.2853          0.6804E+06
   4611      1     57      8      0.2832          0.6804E+06
   4612      1     57      9      0.2837          0.6804E+06
   4613      1     57     10      0.2851          0.6804E+06
   4614      1     57     11      0.2857          0.6804E+06
   4615      1     57     12      0.2836          0.6804E+06
   4616      1     57     13      0.2715          0.6804E+06
   4617      1     57     14      0.2540          0.6804E+06
   4618      1     57     15      0.2299          0.6804E+06
   4619      1     57     16      0.2093          0.6804E+06
   4620      1     57     17      0.1891          0.6804E+06
   4621      1     57     18      0.1748          0.6804E+06
   4622      1     57     19      0.1672          0.6804E+06
   4623      1     57     20      0.1603          0.6804E+06
   4624      1     57     21      0.1507          0.6804E+06
   4625      1     57     22      0.1400          0.6804E+06
   4626      1     57     23      0.1263          0.6804E+06
   4627      1     57     24      0.1140          0.6804E+06
   4628      1     57     25      0.9739E-01      0.6804E+06
   4629      1     57     26      0.7617E-01      0.6804E+06
   4630      1     57     27      0.5181E-01      0.6804E+06
   4631      1     57     28      0.1336E-01      0.6804E+06
   4632      1     57     60       0.000          0.6804E+06
   4633      1     57     61       0.000          0.6804E+06
   4634      1     57     62       0.000          0.6804E+06
   4635      1     57     63       0.000          0.6804E+06
   4636      1     57     64       0.000          0.6804E+06
   4637      1     57     65       0.000          0.6804E+06
   4638      1     57     66       0.000          0.6804E+06
   4639      1     57     67       0.000          0.6804E+06
   4640      1     57     68       0.000          0.6804E+06
   4641      1     57     69       0.000          0.6804E+06
   4642      1     57     70       0.000          0.6804E+06
   4643      1     57     71       0.000          0.6804E+06
   4644      1     57     72       0.000          0.6804E+06
   4645      1     57     73       0.000          0.6804E+06
   4646      1     57     74       0.000          0.6804E+06
   4647      1     57     75       0.000          0.6804E+06
   4648      1     57     76       0.000          0.6804E+06
   4649      1     57     77       0.000          0.6804E+06
   4650      1     57     78       0.000          0.6804E+06
   4651      1     57     79       0.000          0.6804E+06
   4652      1     57     80       0.000          0.6804E+06
   4653      1     57     81      0.2049E-01      0.6804E+06
   4654      1     57     82      0.4031E-01      0.6804E+06
   4655      1     57     83      0.5477E-01      0.6804E+06
   4656      1     57     84      0.7030E-01      0.6804E+06
   4657      1     57     85      0.8112E-01      0.6804E+06
   4658      1     57     86      0.8956E-01      0.6804E+06
   4659      1     57     87      0.9740E-01      0.6804E+06
   4660      1     57     88      0.1041          0.6804E+06
   4661      1     57     89      0.1119          0.6804E+06
   4662      1     57     90      0.1193          0.6804E+06
   4663      1     57     91      0.1253          0.6804E+06
   4664      1     57     92      0.1307          0.6804E+06
   4665      1     57     93      0.1343          0.6804E+06
   4666      1     57     94      0.1375          0.6804E+06
   4667      1     57     95      0.1399          0.6804E+06
   4668      1     57     96      0.1416          0.6804E+06
   4669      1     57     97      0.1430          0.6804E+06
   4670      1     57     98      0.1441          0.6804E+06
   4671      1     57     99      0.1452          0.6804E+06
   4672      1     57    100      0.1453          0.6804E+06
   4673      1     58      1      0.6357          0.6804E+06
   4674      1     58      2      0.5398          0.6804E+06
   4675      1     58      3      0.4534          0.6804E+06
   4676      1     58      4      0.3633          0.6804E+06
   4677      1     58      5      0.3074          0.6804E+06
   4678      1     58      6      0.2914          0.6804E+06
   4679      1     58      7      0.2860          0.6804E+06
   4680      1     58      8      0.2850          0.6804E+06
   4681      1     58      9      0.2852          0.6804E+06
   4682      1     58     10      0.2853          0.6804E+06
   4683      1     58     11      0.2844          0.6804E+06
   4684      1     58     12      0.2801          0.6804E+06
   4685      1     58     13      0.2674          0.6804E+06
   4686      1     58     14      0.2503          0.6804E+06
   4687      1     58     15      0.2270          0.6804E+06
   4688      1     58     16      0.2072          0.6804E+06
   4689      1     58     17      0.1894          0.6804E+06
   4690      1     58     18      0.1784          0.6804E+06
   4691      1     58     19      0.1751          0.6804E+06
   4692      1     58     20      0.1748          0.6804E+06
   4693      1     58     21      0.1637          0.6804E+06
   4694      1     58     22      0.1485          0.6804E+06
   4695      1     58     23      0.1314          0.6804E+06
   4696      1     58     24      0.1192          0.6804E+06
   4697      1     58     25      0.1056          0.6804E+06
   4698      1     58     26      0.8914E-01      0.6804E+06
   4699      1     58     27      0.6916E-01      0.6804E+06
   4700      1     58     28      0.3482E-01      0.6804E+06
   4701      1     58     60       0.000          0.6804E+06
   4702      1     58     61       0.000          0.6804E+06
   4703      1     58     62       0.000          0.6804E+06
   4704      1     58     63       0.000          0.6804E+06
   4705      1     58     64       0.000          0.6804E+06
   4706      1     58     65       0.000          0.6804E+06
   4707      1     58     66       0.000          0.6804E+06
   4708      1     58     67       0.000          0.6804E+06
   4709      1     58     68       0.000          0.6804E+06
   4710      1     58     69       0.000          0.6804E+06
   4711      1     58     70       0.000          0.6804E+06
   4712      1     58     71       0.000          0.6804E+06
   4713      1     58     72       0.000          0.6804E+06
   4714      1     58     73       0.000          0.6804E+06
   4715      1     58     74       0.000          0.6804E+06
   4716      1     58     75       0.000          0.6804E+06
   4717      1     58     76       0.000          0.6804E+06
   4718      1     58     77       0.000          0.6804E+06
   4719      1     58     78       0.000          0.6804E+06
   4720      1     58     79       0.000          0.6804E+06
   4721      1     58     80       0.000          0.6804E+06
   4722      1     58     81      0.2124E-01      0.6804E+06
   4723      1     58     82      0.4235E-01      0.6804E+06
   4724      1     58     83      0.5872E-01      0.6804E+06
   4725      1     58     84      0.7556E-01      0.6804E+06
   4726      1     58     85      0.8743E-01      0.6804E+06
   4727      1     58     86      0.9713E-01      0.6804E+06
   4728      1     58     87      0.1062          0.6804E+06
   4729      1     58     88      0.1138          0.6804E+06
   4730      1     58     89      0.1227          0.6804E+06
   4731      1     58     90      0.1315          0.6804E+06
   4732      1     58     91      0.1380          0.6804E+06
   4733      1     58     92      0.1443          0.6804E+06
   4734      1     58     93      0.1488          0.6804E+06
   4735      1     58     94      0.1527          0.6804E+06
   4736      1     58     95      0.1560          0.6804E+06
   4737      1     58     96      0.1583          0.6804E+06
   4738      1     58     97      0.1603          0.6804E+06
   4739      1     58     98      0.1617          0.6804E+06
   4740      1     58     99      0.1629          0.6804E+06
   4741      1     58    100      0.1629          0.6804E+06
   4742      1     59      1      0.6494          0.6804E+06
   4743      1     59      2      0.5567          0.6804E+06
   4744      1     59      3      0.4732          0.6804E+06
   4745      1     59      4      0.3870          0.6804E+06
   4746      1     59      5      0.3298          0.6804E+06
   4747      1     59      6      0.3085          0.6804E+06
   4748      1     59      7      0.2980          0.6804E+06
   4749      1     59      8      0.2934          0.6804E+06
   4750      1     59      9      0.2909          0.6804E+06
   4751      1     59     10      0.2882          0.6804E+06
   4752      1     59     11      0.2849          0.6804E+06
   4753      1     59     12      0.2776          0.6804E+06
   4754      1     59     13      0.2639          0.6804E+06
   4755      1     59     14      0.2469          0.6804E+06
   4756      1     59     15      0.2236          0.6804E+06
   4757      1     59     16      0.2030          0.6804E+06
   4758      1     59     17      0.1850          0.6804E+06
   4759      1     59     18      0.1755          0.6804E+06
   4760      1     59     19      0.1749          0.6804E+06
   4761      1     59     20      0.1754          0.6804E+06
   4762      1     59     21      0.1638          0.6804E+06
   4763      1     59     22      0.1476          0.6804E+06
   4764      1     59     23      0.1293          0.6804E+06
   4765      1     59     24      0.1181          0.6804E+06
   4766      1     59     25      0.1070          0.6804E+06
   4767      1     59     26      0.9443E-01      0.6804E+06
   4768      1     59     27      0.7971E-01      0.6804E+06
   4769      1     59     28      0.5402E-01      0.6804E+06
   4770      1     59     61       0.000          0.6804E+06
   4771      1     59     62       0.000          0.6804E+06
   4772      1     59     63       0.000          0.6804E+06
   4773      1     59     64       0.000          0.6804E+06
   4774      1     59     65       0.000          0.6804E+06
   4775      1     59     66       0.000          0.6804E+06
   4776      1     59     67       0.000          0.6804E+06
   4777      1     59     68       0.000          0.6804E+06
   4778      1     59     69       0.000          0.6804E+06
   4779      1     59     70       0.000          0.6804E+06
   4780      1     59     71       0.000          0.6804E+06
   4781      1     59     72       0.000          0.6804E+06
   4782      1     59     73       0.000          0.6804E+06
   4783      1     59     74       0.000          0.6804E+06
   4784      1     59     75       0.000          0.6804E+06
   4785      1     59     76       0.000          0.6804E+06
   4786      1     59     77       0.000          0.6804E+06
   4787      1     59     78       0.000          0.6804E+06
   4788      1     59     79       0.000          0.6804E+06
   4789      1     59     80      0.1650E-02      0.6804E+06
   4790      1     59     81      0.2706E-01      0.6804E+06
   4791      1     59     82      0.4928E-01      0.6804E+06
   4792      1     59     83      0.6667E-01      0.6804E+06
   4793      1     59     84      0.8386E-01      0.6804E+06
   4794      1     59     85      0.9644E-01      0.6804E+06
   4795      1     59     86      0.1079          0.6804E+06
   4796      1     59     87      0.1176          0.6804E+06
   4797      1     59     88      0.1263          0.6804E+06
   4798      1     59     89      0.1368          0.6804E+06
   4799      1     59     90      0.1469          0.6804E+06
   4800      1     59     91      0.1541          0.6804E+06
   4801      1     59     92      0.1614          0.6804E+06
   4802      1     59     93      0.1668          0.6804E+06
   4803      1     59     94      0.1716          0.6804E+06
   4804      1     59     95      0.1757          0.6804E+06
   4805      1     59     96      0.1789          0.6804E+06
   4806      1     59     97      0.1816          0.6804E+06
   4807      1     59     98      0.1835          0.6804E+06
   4808      1     59     99      0.1850          0.6804E+06
   4809      1     59    100      0.1851          0.6804E+06
   4810      1     60      1      0.6688          0.6804E+06
   4811      1     60      2      0.5820          0.6804E+06
   4812      1     60      3      0.5054          0.6804E+06
   4813      1     60      4      0.4270          0.6804E+06
   4814      1     60      5      0.3690          0.6804E+06
   4815      1     60      6      0.3378          0.6804E+06
   4816      1     60      7      0.3171          0.6804E+06
   4817      1     60      8      0.3057          0.6804E+06
   4818      1     60      9      0.2989          0.6804E+06
   4819      1     60     10      0.2927          0.6804E+06
   4820      1     60     11      0.2873          0.6804E+06
   4821      1     60     12      0.2784          0.6804E+06
   4822      1     60     13      0.2638          0.6804E+06
   4823      1     60     14      0.2457          0.6804E+06
   4824      1     60     15      0.2212          0.6804E+06
   4825      1     60     16      0.1994          0.6804E+06
   4826      1     60     17      0.1803          0.6804E+06
   4827      1     60     18      0.1710          0.6804E+06
   4828      1     60     19      0.1713          0.6804E+06
   4829      1     60     20      0.1696          0.6804E+06
   4830      1     60     21      0.1578          0.6804E+06
   4831      1     60     22      0.1417          0.6804E+06
   4832      1     60     23      0.1228          0.6804E+06
   4833      1     60     24      0.1137          0.6804E+06
   4834      1     60     25      0.1050          0.6804E+06
   4835      1     60     26      0.9487E-01      0.6804E+06
   4836      1     60     27      0.8268E-01      0.6804E+06
   4837      1     60     28      0.6146E-01      0.6804E+06
   4838      1     60     61       0.000          0.6804E+06
   4839      1     60     62       0.000          0.6804E+06
   4840      1     60     63       0.000          0.6804E+06
   4841      1     60     64       0.000          0.6804E+06
   4842      1     60     65       0.000          0.6804E+06
   4843      1     60     66       0.000          0.6804E+06
   4844      1     60     67       0.000          0.6804E+06
   4845      1     60     68       0.000          0.6804E+06
   4846      1     60     69       0.000          0.6804E+06
   4847      1     60     70       0.000          0.6804E+06
   4848      1     60     71       0.000          0.6804E+06
   4849      1     60     72       0.000          0.6804E+06
   4850      1     60     73       0.000          0.6804E+06
   4851      1     60     74       0.000          0.6804E+06
   4852      1     60     75       0.000          0.6804E+06
   4853      1     60     76       0.000          0.6804E+06
   4854      1     60     77       0.000          0.6804E+06
   4855      1     60     78       0.000          0.6804E+06
   4856      1     60     79       0.000          0.6804E+06
   4857      1     60     80      0.1271E-01      0.6804E+06
   4858      1     60     81      0.3838E-01      0.6804E+06
   4859      1     60     82      0.6108E-01      0.6804E+06
   4860      1     60     83      0.7876E-01      0.6804E+06
   4861      1     60     84      0.9578E-01      0.6804E+06
   4862      1     60     85      0.1085          0.6804E+06
   4863      1     60     86      0.1211          0.6804E+06
   4864      1     60     87      0.1311          0.6804E+06
   4865      1     60     88      0.1402          0.6804E+06
   4866      1     60     89      0.1514          0.6804E+06
   4867      1     60     90      0.1617          0.6804E+06
   4868      1     60     91      0.1691          0.6804E+06
   4869      1     60     92      0.1767          0.6804E+06
   4870      1     60     93      0.1824          0.6804E+06
   4871      1     60     94      0.1876          0.6804E+06
   4872      1     60     95      0.1923          0.6804E+06
   4873      1     60     96      0.1959          0.6804E+06
   4874      1     60     97      0.1991          0.6804E+06
   4875      1     60     98      0.2014          0.6804E+06
   4876      1     60     99      0.2032          0.6804E+06
   4877      1     60    100      0.2035          0.6804E+06
   4878      1     61      1      0.6976          0.6804E+06
   4879      1     61      2      0.6178          0.6804E+06
   4880      1     61      3      0.5477          0.6804E+06
   4881      1     61      4      0.4742          0.6804E+06
   4882      1     61      5      0.4134          0.6804E+06
   4883      1     61      6      0.3726          0.6804E+06
   4884      1     61      7      0.3405          0.6804E+06
   4885      1     61      8      0.3211          0.6804E+06
   4886      1     61      9      0.3091          0.6804E+06
   4887      1     61     10      0.2979          0.6804E+06
   4888      1     61     11      0.2905          0.6804E+06
   4889      1     61     12      0.2818          0.6804E+06
   4890      1     61     13      0.2666          0.6804E+06
   4891      1     61     14      0.2464          0.6804E+06
   4892      1     61     15      0.2205          0.6804E+06
   4893      1     61     16      0.1984          0.6804E+06
   4894      1     61     17      0.1790          0.6804E+06
   4895      1     61     18      0.1690          0.6804E+06
   4896      1     61     19      0.1679          0.6804E+06
   4897      1     61     20      0.1635          0.6804E+06
   4898      1     61     21      0.1507          0.6804E+06
   4899      1     61     22      0.1343          0.6804E+06
   4900      1     61     23      0.1152          0.6804E+06
   4901      1     61     24      0.1078          0.6804E+06
   4902      1     61     25      0.1013          0.6804E+06
   4903      1     61     26      0.9303E-01      0.6804E+06
   4904      1     61     27      0.8277E-01      0.6804E+06
   4905      1     61     28      0.6609E-01      0.6804E+06
   4906      1     61     61       0.000          0.6804E+06
   4907      1     61     62       0.000          0.6804E+06
   4908      1     61     63       0.000          0.6804E+06
   4909      1     61     64       0.000          0.6804E+06
   4910      1     61     65       0.000          0.6804E+06
   4911      1     61     66       0.000          0.6804E+06
   4912      1     61     67       0.000          0.6804E+06
   4913      1     61     68       0.000          0.6804E+06
   4914      1     61     69       0.000          0.6804E+06
   4915      1     61     70       0.000          0.6804E+06
   4916      1     61     71       0.000          0.6804E+06
   4917      1     61     72       0.000          0.6804E+06
   4918      1     61     73       0.000          0.6804E+06
   4919      1     61     74       0.000          0.6804E+06
   4920      1     61     75       0.000          0.6804E+06
   4921      1     61     76       0.000          0.6804E+06
   4922      1     61     77       0.000          0.6804E+06
   4923      1     61     78       0.000          0.6804E+06
   4924      1     61     79      0.3636E-02      0.6804E+06
   4925      1     61     80      0.3003E-01      0.6804E+06
   4926      1     61     81      0.5554E-01      0.6804E+06
   4927      1     61     82      0.7794E-01      0.6804E+06
   4928      1     61     83      0.9543E-01      0.6804E+06
   4929      1     61     84      0.1124          0.6804E+06
   4930      1     61     85      0.1255          0.6804E+06
   4931      1     61     86      0.1392          0.6804E+06
   4932      1     61     87      0.1499          0.6804E+06
   4933      1     61     88      0.1593          0.6804E+06
   4934      1     61     89      0.1704          0.6804E+06
   4935      1     61     90      0.1802          0.6804E+06
   4936      1     61     91      0.1875          0.6804E+06
   4937      1     61     92      0.1949          0.6804E+06
   4938      1     61     93      0.2007          0.6804E+06
   4939      1     61     94      0.2062          0.6804E+06
   4940      1     61     95      0.2114          0.6804E+06
   4941      1     61     96      0.2155          0.6804E+06
   4942      1     61     97      0.2193          0.6804E+06
   4943      1     61     98      0.2220          0.6804E+06
   4944      1     61     99      0.2241          0.6804E+06
   4945      1     61    100      0.2246          0.6804E+06
   4946      1     62      1      0.7240          0.6804E+06
   4947      1     62      2      0.6493          0.6804E+06
   4948      1     62      3      0.5830          0.6804E+06
   4949      1     62      4      0.5107          0.6804E+06
   4950      1     62      5      0.4463          0.6804E+06
   4951      1     62      6      0.3983          0.6804E+06
   4952      1     62      7      0.3567          0.6804E+06
   4953      1     62      8      0.3291          0.6804E+06
   4954      1     62      9      0.3119          0.6804E+06
   4955      1     62     10      0.2971          0.6804E+06
   4956      1     62     11      0.2883          0.6804E+06
   4957      1     62     12      0.2802          0.6804E+06
   4958      1     62     13      0.2656          0.6804E+06
   4959      1     62     14      0.2444          0.6804E+06
   4960      1     62     15      0.2195          0.6804E+06
   4961      1     62     16      0.2002          0.6804E+06
   4962      1     62     17      0.1834          0.6804E+06
   4963      1     62     18      0.1738          0.6804E+06
   4964      1     62     19      0.1698          0.6804E+06
   4965      1     62     20      0.1632          0.6804E+06
   4966      1     62     21      0.1495          0.6804E+06
   4967      1     62     22      0.1331          0.6804E+06
   4968      1     62     23      0.1147          0.6804E+06
   4969      1     62     24      0.1041          0.6804E+06
   4970      1     62     25      0.9581E-01      0.6804E+06
   4971      1     62     26      0.8906E-01      0.6804E+06
   4972      1     62     27      0.8189E-01      0.6804E+06
   4973      1     62     28      0.7195E-01      0.6804E+06
   4974      1     62     62       0.000          0.6804E+06
   4975      1     62     63       0.000          0.6804E+06
   4976      1     62     64       0.000          0.6804E+06
   4977      1     62     65       0.000          0.6804E+06
   4978      1     62     66       0.000          0.6804E+06
   4979      1     62     67       0.000          0.6804E+06
   4980      1     62     68       0.000          0.6804E+06
   4981      1     62     69       0.000          0.6804E+06
   4982      1     62     70       0.000          0.6804E+06
   4983      1     62     71       0.000          0.6804E+06
   4984      1     62     72       0.000          0.6804E+06
   4985      1     62     73       0.000          0.6804E+06
   4986      1     62     74       0.000          0.6804E+06
   4987      1     62     75       0.000          0.6804E+06
   4988      1     62     76       0.000          0.6804E+06
   4989      1     62     77       0.000          0.6804E+06
   4990      1     62     78       0.000          0.6804E+06
   4991      1     62     79      0.2687E-01      0.6804E+06
   4992      1     62     80      0.5086E-01      0.6804E+06
   4993      1     62     81      0.7451E-01      0.6804E+06
   4994      1     62     82      0.9576E-01      0.6804E+06
   4995      1     62     83      0.1131          0.6804E+06
   4996      1     62     84      0.1301          0.6804E+06
   4997      1     62     85      0.1434          0.6804E+06
   4998      1     62     86      0.1578          0.6804E+06
   4999      1     62     87      0.1699          0.6804E+06
   5000      1     62     88      0.1792          0.6804E+06
   5001      1     62     89      0.1893          0.6804E+06
   5002      1     62     90      0.1978          0.6804E+06
   5003      1     62     91      0.2042          0.6804E+06
   5004      1     62     92      0.2111          0.6804E+06
   5005      1     62     93      0.2166          0.6804E+06
   5006      1     62     94      0.2222          0.6804E+06
   5007      1     62     95      0.2277          0.6804E+06
   5008      1     62     96      0.2323          0.6804E+06
   5009      1     62     97      0.2367          0.6804E+06
   5010      1     62     98      0.2399          0.6804E+06
   5011      1     62     99      0.2420          0.6804E+06
   5012      1     62    100      0.2425          0.6804E+06
   5013      1     63      1      0.7647          0.6804E+06
   5014      1     63      2      0.6953          0.6804E+06
   5015      1     63      3      0.6322          0.6804E+06
   5016      1     63      4      0.5590          0.6804E+06
   5017      1     63      5      0.4875          0.6804E+06
   5018      1     63      6      0.4283          0.6804E+06
   5019      1     63      7      0.3718          0.6804E+06
   5020      1     63      8      0.3312          0.6804E+06
   5021      1     63      9      0.3063          0.6804E+06
   5022      1     63     10      0.2882          0.6804E+06
   5023      1     63     11      0.2781          0.6804E+06
   5024      1     63     12      0.2691          0.6804E+06
   5025      1     63     13      0.2554          0.6804E+06
   5026      1     63     14      0.2363          0.6804E+06
   5027      1     63     15      0.2153          0.6804E+06
   5028      1     63     16      0.2003          0.6804E+06
   5029      1     63     17      0.1874          0.6804E+06
   5030      1     63     18      0.1789          0.6804E+06
   5031      1     63     19      0.1732          0.6804E+06
   5032      1     63     20      0.1645          0.6804E+06
   5033      1     63     21      0.1499          0.6804E+06
   5034      1     63     22      0.1328          0.6804E+06
   5035      1     63     23      0.1128          0.6804E+06
   5036      1     63     24      0.9874E-01      0.6804E+06
   5037      1     63     25      0.8765E-01      0.6804E+06
   5038      1     63     26      0.8152E-01      0.6804E+06
   5039      1     63     27      0.7855E-01      0.6804E+06
   5040      1     63     28      0.7447E-01      0.6804E+06
   5041      1     63     29      0.6772E-01      0.6804E+06
   5042      1     63     62       0.000          0.6804E+06
   5043      1     63     63       0.000          0.6804E+06
   5044      1     63     64       0.000          0.6804E+06
   5045      1     63     65       0.000          0.6804E+06
   5046      1     63     66       0.000          0.6804E+06
   5047      1     63     67       0.000          0.6804E+06
   5048      1     63     68       0.000          0.6804E+06
   5049      1     63     69       0.000          0.6804E+06
   5050      1     63     70       0.000          0.6804E+06
   5051      1     63     71       0.000          0.6804E+06
   5052      1     63     72       0.000          0.6804E+06
   5053      1     63     73       0.000          0.6804E+06
   5054      1     63     74       0.000          0.6804E+06
   5055      1     63     75       0.000          0.6804E+06
   5056      1     63     76       0.000          0.6804E+06
   5057      1     63     77       0.000          0.6804E+06
   5058      1     63     78      0.3195E-01      0.6804E+06
   5059      1     63     79      0.5937E-01      0.6804E+06
   5060      1     63     80      0.7975E-01      0.6804E+06
   5061      1     63     81      0.1004          0.6804E+06
   5062      1     63     82      0.1196          0.6804E+06
   5063      1     63     83      0.1355          0.6804E+06
   5064      1     63     84      0.1520          0.6804E+06
   5065      1     63     85      0.1655          0.6804E+06
   5066      1     63     86      0.1807          0.6804E+06
   5067      1     63     87      0.1938          0.6804E+06
   5068      1     63     88      0.2029          0.6804E+06
   5069      1     63     89      0.2111          0.6804E+06
   5070      1     63     90      0.2174          0.6804E+06
   5071      1     63     91      0.2226          0.6804E+06
   5072      1     63     92      0.2287          0.6804E+06
   5073      1     63     93      0.2339          0.6804E+06
   5074      1     63     94      0.2395          0.6804E+06
   5075      1     63     95      0.2455          0.6804E+06
   5076      1     63     96      0.2505          0.6804E+06
   5077      1     63     97      0.2555          0.6804E+06
   5078      1     63     98      0.2592          0.6804E+06
   5079      1     63     99      0.2613          0.6804E+06
   5080      1     63    100      0.2618          0.6804E+06
   5081      1     64      1      0.8053          0.6804E+06
   5082      1     64      2      0.7400          0.6804E+06
   5083      1     64      3      0.6788          0.6804E+06
   5084      1     64      4      0.6036          0.6804E+06
   5085      1     64      5      0.5239          0.6804E+06
   5086      1     64      6      0.4526          0.6804E+06
   5087      1     64      7      0.3795          0.6804E+06
   5088      1     64      8      0.3251          0.6804E+06
   5089      1     64      9      0.2936          0.6804E+06
   5090      1     64     10      0.2744          0.6804E+06
   5091      1     64     11      0.2630          0.6804E+06
   5092      1     64     12      0.2510          0.6804E+06
   5093      1     64     13      0.2376          0.6804E+06
   5094      1     64     14      0.2234          0.6804E+06
   5095      1     64     15      0.2076          0.6804E+06
   5096      1     64     16      0.1967          0.6804E+06
   5097      1     64     17      0.1875          0.6804E+06
   5098      1     64     18      0.1814          0.6804E+06
   5099      1     64     19      0.1768          0.6804E+06
   5100      1     64     20      0.1680          0.6804E+06
   5101      1     64     21      0.1524          0.6804E+06
   5102      1     64     22      0.1333          0.6804E+06
   5103      1     64     23      0.1095          0.6804E+06
   5104      1     64     24      0.9132E-01      0.6804E+06
   5105      1     64     25      0.7684E-01      0.6804E+06
   5106      1     64     26      0.7106E-01      0.6804E+06
   5107      1     64     27      0.7188E-01      0.6804E+06
   5108      1     64     28      0.7394E-01      0.6804E+06
   5109      1     64     29      0.7391E-01      0.6804E+06
   5110      1     64     30      0.6714E-01      0.6804E+06
   5111      1     64     62       0.000          0.6804E+06
   5112      1     64     63       0.000          0.6804E+06
   5113      1     64     64       0.000          0.6804E+06
   5114      1     64     65       0.000          0.6804E+06
   5115      1     64     66       0.000          0.6804E+06
   5116      1     64     67       0.000          0.6804E+06
   5117      1     64     68       0.000          0.6804E+06
   5118      1     64     69       0.000          0.6804E+06
   5119      1     64     70       0.000          0.6804E+06
   5120      1     64     71       0.000          0.6804E+06
   5121      1     64     72       0.000          0.6804E+06
   5122      1     64     73       0.000          0.6804E+06
   5123      1     64     74       0.000          0.6804E+06
   5124      1     64     75       0.000          0.6804E+06
   5125      1     64     76      0.2230E-01      0.6804E+06
   5126      1     64     77      0.4549E-01      0.6804E+06
   5127      1     64     78      0.7268E-01      0.6804E+06
   5128      1     64     79      0.9491E-01      0.6804E+06
   5129      1     64     80      0.1114          0.6804E+06
   5130      1     64     81      0.1289          0.6804E+06
   5131      1     64     82      0.1457          0.6804E+06
   5132      1     64     83      0.1592          0.6804E+06
   5133      1     64     84      0.1739          0.6804E+06
   5134      1     64     85      0.1874          0.6804E+06
   5135      1     64     86      0.2027          0.6804E+06
   5136      1     64     87      0.2166          0.6804E+06
   5137      1     64     88      0.2251          0.6804E+06
   5138      1     64     89      0.2313          0.6804E+06
   5139      1     64     90      0.2360          0.6804E+06
   5140      1     64     91      0.2402          0.6804E+06
   5141      1     64     92      0.2454          0.6804E+06
   5142      1     64     93      0.2502          0.6804E+06
   5143      1     64     94      0.2557          0.6804E+06
   5144      1     64     95      0.2617          0.6804E+06
   5145      1     64     96      0.2668          0.6804E+06
   5146      1     64     97      0.2718          0.6804E+06
   5147      1     64     98      0.2755          0.6804E+06
   5148      1     64     99      0.2779          0.6804E+06
   5149      1     64    100      0.2789          0.6804E+06
   5150      1     65      1      0.8433          0.6804E+06
   5151      1     65      2      0.7804          0.6804E+06
   5152      1     65      3      0.7192          0.6804E+06
   5153      1     65      4      0.6415          0.6804E+06
   5154      1     65      5      0.5560          0.6804E+06
   5155      1     65      6      0.4755          0.6804E+06
   5156      1     65      7      0.3853          0.6804E+06
   5157      1     65      8      0.3184          0.6804E+06
   5158      1     65      9      0.2833          0.6804E+06
   5159      1     65     10      0.2655          0.6804E+06
   5160      1     65     11      0.2530          0.6804E+06
   5161      1     65     12      0.2388          0.6804E+06
   5162      1     65     13      0.2247          0.6804E+06
   5163      1     65     14      0.2122          0.6804E+06
   5164      1     65     15      0.1992          0.6804E+06
   5165      1     65     16      0.1906          0.6804E+06
   5166      1     65     17      0.1839          0.6804E+06
   5167      1     65     18      0.1807          0.6804E+06
   5168      1     65     19      0.1793          0.6804E+06
   5169      1     65     20      0.1725          0.6804E+06
   5170      1     65     21      0.1564          0.6804E+06
   5171      1     65     22      0.1344          0.6804E+06
   5172      1     65     23      0.1070          0.6804E+06
   5173      1     65     24      0.8469E-01      0.6804E+06
   5174      1     65     25      0.6673E-01      0.6804E+06
   5175      1     65     26      0.6113E-01      0.6804E+06
   5176      1     65     27      0.6565E-01      0.6804E+06
   5177      1     65     28      0.7254E-01      0.6804E+06
   5178      1     65     29      0.7758E-01      0.6804E+06
   5179      1     65     30      0.7604E-01      0.6804E+06
   5180      1     65     62       0.000          0.6804E+06
   5181      1     65     63       0.000          0.6804E+06
   5182      1     65     64       0.000          0.6804E+06
   5183      1     65     65       0.000          0.6804E+06
   5184      1     65     66       0.000          0.6804E+06
   5185      1     65     67       0.000          0.6804E+06
   5186      1     65     68       0.000          0.6804E+06
   5187      1     65     69       0.000          0.6804E+06
   5188      1     65     70       0.000          0.6804E+06
   5189      1     65     71       0.000          0.6804E+06
   5190      1     65     72       0.000          0.6804E+06
   5191      1     65     73       0.000          0.6804E+06
   5192      1     65     74       0.000          0.6804E+06
   5193      1     65     75      0.1949E-01      0.6804E+06
   5194      1     65     76      0.7660E-01      0.6804E+06
   5195      1     65     77      0.9054E-01      0.6804E+06
   5196      1     65     78      0.1097          0.6804E+06
   5197      1     65     79      0.1260          0.6804E+06
   5198      1     65     80      0.1387          0.6804E+06
   5199      1     65     81      0.1538          0.6804E+06
   5200      1     65     82      0.1687          0.6804E+06
   5201      1     65     83      0.1797          0.6804E+06
   5202      1     65     84      0.1924          0.6804E+06
   5203      1     65     85      0.2052          0.6804E+06
   5204      1     65     86      0.2200          0.6804E+06
   5205      1     65     87      0.2335          0.6804E+06
   5206      1     65     88      0.2415          0.6804E+06
   5207      1     65     89      0.2465          0.6804E+06
   5208      1     65     90      0.2506          0.6804E+06
   5209      1     65     91      0.2542          0.6804E+06
   5210      1     65     92      0.2589          0.6804E+06
   5211      1     65     93      0.2634          0.6804E+06
   5212      1     65     94      0.2688          0.6804E+06
   5213      1     65     95      0.2745          0.6804E+06
   5214      1     65     96      0.2797          0.6804E+06
   5215      1     65     97      0.2849          0.6804E+06
   5216      1     65     98      0.2884          0.6804E+06
   5217      1     65     99      0.2909          0.6804E+06
   5218      1     65    100      0.2919          0.6804E+06
   5219      1     66      1      0.8893          0.6804E+06
   5220      1     66      2      0.8288          0.6804E+06
   5221      1     66      3      0.7675          0.6804E+06
   5222      1     66      4      0.6887          0.6804E+06
   5223      1     66      5      0.6005          0.6804E+06
   5224      1     66      6      0.5151          0.6804E+06
   5225      1     66      7      0.4139          0.6804E+06
   5226      1     66      8      0.3369          0.6804E+06
   5227      1     66      9      0.2959          0.6804E+06
   5228      1     66     10      0.2720          0.6804E+06
   5229      1     66     11      0.2530          0.6804E+06
   5230      1     66     12      0.2326          0.6804E+06
   5231      1     66     13      0.2150          0.6804E+06
   5232      1     66     14      0.2025          0.6804E+06
   5233      1     66     15      0.1906          0.6804E+06
   5234      1     66     16      0.1828          0.6804E+06
   5235      1     66     17      0.1773          0.6804E+06
   5236      1     66     18      0.1770          0.6804E+06
   5237      1     66     19      0.1794          0.6804E+06
   5238      1     66     20      0.1761          0.6804E+06
   5239      1     66     21      0.1606          0.6804E+06
   5240      1     66     22      0.1362          0.6804E+06
   5241      1     66     23      0.1063          0.6804E+06
   5242      1     66     24      0.8042E-01      0.6804E+06
   5243      1     66     25      0.5877E-01      0.6804E+06
   5244      1     66     26      0.5290E-01      0.6804E+06
   5245      1     66     27      0.6109E-01      0.6804E+06
   5246      1     66     28      0.7134E-01      0.6804E+06
   5247      1     66     29      0.8049E-01      0.6804E+06
   5248      1     66     30      0.8453E-01      0.6804E+06
   5249      1     66     64       0.000          0.6804E+06
   5250      1     66     65       0.000          0.6804E+06
   5251      1     66     66       0.000          0.6804E+06
   5252      1     66     67       0.000          0.6804E+06
   5253      1     66     68       0.000          0.6804E+06
   5254      1     66     69       0.000          0.6804E+06
   5255      1     66     70       0.000          0.6804E+06
   5256      1     66     71       0.000          0.6804E+06
   5257      1     66     72       0.000          0.6804E+06
   5258      1     66     73       0.000          0.6804E+06
   5259      1     66     74      0.1345E-01      0.6804E+06
   5260      1     66     75      0.6491E-01      0.6804E+06
   5261      1     66     76      0.1138          0.6804E+06
   5262      1     66     77      0.1313          0.6804E+06
   5263      1     66     78      0.1469          0.6804E+06
   5264      1     66     79      0.1595          0.6804E+06
   5265      1     66     80      0.1696          0.6804E+06
   5266      1     66     81      0.1816          0.6804E+06
   5267      1     66     82      0.1930          0.6804E+06
   5268      1     66     83      0.2018          0.6804E+06
   5269      1     66     84      0.2123          0.6804E+06
   5270      1     66     85      0.2237          0.6804E+06
   5271      1     66     86      0.2367          0.6804E+06
   5272      1     66     87      0.2476          0.6804E+06
   5273      1     66     88      0.2547          0.6804E+06
   5274      1     66     89      0.2601          0.6804E+06
   5275      1     66     90      0.2645          0.6804E+06
   5276      1     66     91      0.2680          0.6804E+06
   5277      1     66     92      0.2724          0.6804E+06
   5278      1     66     93      0.2766          0.6804E+06
   5279      1     66     94      0.2818          0.6804E+06
   5280      1     66     95      0.2876          0.6804E+06
   5281      1     66     96      0.2929          0.6804E+06
   5282      1     66     97      0.2984          0.6804E+06
   5283      1     66     98      0.3019          0.6804E+06
   5284      1     66     99      0.3039          0.6804E+06
   5285      1     66    100      0.3045          0.6804E+06
   5286      1     67      1      0.9378          0.6804E+06
   5287      1     67      2      0.8798          0.6804E+06
   5288      1     67      3      0.8201          0.6804E+06
   5289      1     67      4      0.7431          0.6804E+06
   5290      1     67      5      0.6568          0.6804E+06
   5291      1     67      6      0.5729          0.6804E+06
   5292      1     67      7      0.4731          0.6804E+06
   5293      1     67      8      0.3918          0.6804E+06
   5294      1     67      9      0.3410          0.6804E+06
   5295      1     67     10      0.2998          0.6804E+06
   5296      1     67     11      0.2668          0.6804E+06
   5297      1     67     12      0.2348          0.6804E+06
   5298      1     67     13      0.2115          0.6804E+06
   5299      1     67     14      0.1983          0.6804E+06
   5300      1     67     15      0.1866          0.6804E+06
   5301      1     67     16      0.1779          0.6804E+06
   5302      1     67     17      0.1716          0.6804E+06
   5303      1     67     18      0.1729          0.6804E+06
   5304      1     67     19      0.1760          0.6804E+06
   5305      1     67     20      0.1729          0.6804E+06
   5306      1     67     21      0.1588          0.6804E+06
   5307      1     67     22      0.1373          0.6804E+06
   5308      1     67     23      0.1092          0.6804E+06
   5309      1     67     24      0.8535E-01      0.6804E+06
   5310      1     67     25      0.6494E-01      0.6804E+06
   5311      1     67     26      0.5779E-01      0.6804E+06
   5312      1     67     27      0.6287E-01      0.6804E+06
   5313      1     67     28      0.7176E-01      0.6804E+06
   5314      1     67     29      0.8205E-01      0.6804E+06
   5315      1     67     30      0.8959E-01      0.6804E+06
   5316      1     67     31      0.8928E-01      0.6804E+06
   5317      1     67     66       0.000          0.6804E+06
   5318      1     67     67       0.000          0.6804E+06
   5319      1     67     68       0.000          0.6804E+06
   5320      1     67     69       0.000          0.6804E+06
   5321      1     67     70       0.000          0.6804E+06
   5322      1     67     71       0.000          0.6804E+06
   5323      1     67     72       0.000          0.6804E+06
   5324      1     67     73      0.1480E-01      0.6804E+06
   5325      1     67     74      0.6347E-01      0.6804E+06
   5326      1     67     75      0.1037          0.6804E+06
   5327      1     67     76      0.1422          0.6804E+06
   5328      1     67     77      0.1633          0.6804E+06
   5329      1     67     78      0.1782          0.6804E+06
   5330      1     67     79      0.1892          0.6804E+06
   5331      1     67     80      0.1978          0.6804E+06
   5332      1     67     81      0.2072          0.6804E+06
   5333      1     67     82      0.2164          0.6804E+06
   5334      1     67     83      0.2231          0.6804E+06
   5335      1     67     84      0.2308          0.6804E+06
   5336      1     67     85      0.2400          0.6804E+06
   5337      1     67     86      0.2510          0.6804E+06
   5338      1     67     87      0.2601          0.6804E+06
   5339      1     67     88      0.2662          0.6804E+06
   5340      1     67     89      0.2714          0.6804E+06
   5341      1     67     90      0.2756          0.6804E+06
   5342      1     67     91      0.2790          0.6804E+06
   5343      1     67     92      0.2833          0.6804E+06
   5344      1     67     93      0.2874          0.6804E+06
   5345      1     67     94      0.2925          0.6804E+06
   5346      1     67     95      0.2982          0.6804E+06
   5347      1     67     96      0.3037          0.6804E+06
   5348      1     67     97      0.3095          0.6804E+06
   5349      1     67     98      0.3132          0.6804E+06
   5350      1     67     99      0.3144          0.6804E+06
   5351      1     67    100      0.3145          0.6804E+06
   5352      1     68      1      0.9804          0.6804E+06
   5353      1     68      2      0.9247          0.6804E+06
   5354      1     68      3      0.8686          0.6804E+06
   5355      1     68      4      0.7966          0.6804E+06
   5356      1     68      5      0.7156          0.6804E+06
   5357      1     68      6      0.6375          0.6804E+06
   5358      1     68      7      0.5474          0.6804E+06
   5359      1     68      8      0.4666          0.6804E+06
   5360      1     68      9      0.4044          0.6804E+06
   5361      1     68     10      0.3407          0.6804E+06
   5362      1     68     11      0.2907          0.6804E+06
   5363      1     68     12      0.2450          0.6804E+06
   5364      1     68     13      0.2151          0.6804E+06
   5365      1     68     14      0.2005          0.6804E+06
   5366      1     68     15      0.1885          0.6804E+06
   5367      1     68     16      0.1797          0.6804E+06
   5368      1     68     17      0.1732          0.6804E+06
   5369      1     68     18      0.1745          0.6804E+06
   5370      1     68     19      0.1764          0.6804E+06
   5371      1     68     20      0.1722          0.6804E+06
   5372      1     68     21      0.1587          0.6804E+06
   5373      1     68     22      0.1395          0.6804E+06
   5374      1     68     23      0.1139          0.6804E+06
   5375      1     68     24      0.9218E-01      0.6804E+06
   5376      1     68     25      0.7264E-01      0.6804E+06
   5377      1     68     26      0.6355E-01      0.6804E+06
   5378      1     68     27      0.6583E-01      0.6804E+06
   5379      1     68     28      0.7308E-01      0.6804E+06
   5380      1     68     29      0.8215E-01      0.6804E+06
   5381      1     68     30      0.8946E-01      0.6804E+06
   5382      1     68     68       0.000          0.6804E+06
   5383      1     68     69       0.000          0.6804E+06
   5384      1     68     70       0.000          0.6804E+06
   5385      1     68     71       0.000          0.6804E+06
   5386      1     68     72      0.2050E-01      0.6804E+06
   5387      1     68     73      0.5891E-01      0.6804E+06
   5388      1     68     74      0.1021          0.6804E+06
   5389      1     68     75      0.1364          0.6804E+06
   5390      1     68     76      0.1685          0.6804E+06
   5391      1     68     77      0.1877          0.6804E+06
   5392      1     68     78      0.2019          0.6804E+06
   5393      1     68     79      0.2123          0.6804E+06
   5394      1     68     80      0.2198          0.6804E+06
   5395      1     68     81      0.2275          0.6804E+06
   5396      1     68     82      0.2350          0.6804E+06
   5397      1     68     83      0.2402          0.6804E+06
   5398      1     68     84      0.2459          0.6804E+06
   5399      1     68     85      0.2531          0.6804E+06
   5400      1     68     86      0.2623          0.6804E+06
   5401      1     68     87      0.2701          0.6804E+06
   5402      1     68     88      0.2754          0.6804E+06
   5403      1     68     89      0.2797          0.6804E+06
   5404      1     68     90      0.2836          0.6804E+06
   5405      1     68     91      0.2869          0.6804E+06
   5406      1     68     92      0.2909          0.6804E+06
   5407      1     68     93      0.2948          0.6804E+06
   5408      1     68     94      0.2997          0.6804E+06
   5409      1     68     95      0.3052          0.6804E+06
   5410      1     68     96      0.3103          0.6804E+06
   5411      1     68     97      0.3156          0.6804E+06
   5412      1     68     98      0.3190          0.6804E+06
   5413      1     68     99      0.3204          0.6804E+06
   5414      1     68    100      0.3206          0.6804E+06
   5415      1     69      1       1.019          0.6804E+06
   5416      1     69      2      0.9688          0.6804E+06
   5417      1     69      3      0.9209          0.6804E+06
   5418      1     69      4      0.8591          0.6804E+06
   5419      1     69      5      0.7854          0.6804E+06
   5420      1     69      6      0.7143          0.6804E+06
   5421      1     69      7      0.6333          0.6804E+06
   5422      1     69      8      0.5542          0.6804E+06
   5423      1     69      9      0.4827          0.6804E+06
   5424      1     69     10      0.3975          0.6804E+06
   5425      1     69     11      0.3301          0.6804E+06
   5426      1     69     12      0.2690          0.6804E+06
   5427      1     69     13      0.2299          0.6804E+06
   5428      1     69     14      0.2118          0.6804E+06
   5429      1     69     15      0.1989          0.6804E+06
   5430      1     69     16      0.1910          0.6804E+06
   5431      1     69     17      0.1856          0.6804E+06
   5432      1     69     18      0.1847          0.6804E+06
   5433      1     69     19      0.1841          0.6804E+06
   5434      1     69     20      0.1779          0.6804E+06
   5435      1     69     21      0.1637          0.6804E+06
   5436      1     69     22      0.1446          0.6804E+06
   5437      1     69     23      0.1205          0.6804E+06
   5438      1     69     24      0.1003          0.6804E+06
   5439      1     69     25      0.8040E-01      0.6804E+06
   5440      1     69     26      0.6800E-01      0.6804E+06
   5441      1     69     27      0.6869E-01      0.6804E+06
   5442      1     69     28      0.7510E-01      0.6804E+06
   5443      1     69     29      0.8276E-01      0.6804E+06
   5444      1     69     30      0.8854E-01      0.6804E+06
   5445      1     69     70      0.2206E-01      0.6804E+06
   5446      1     69     71      0.4476E-01      0.6804E+06
   5447      1     69     72      0.7024E-01      0.6804E+06
   5448      1     69     73      0.1049          0.6804E+06
   5449      1     69     74      0.1407          0.6804E+06
   5450      1     69     75      0.1691          0.6804E+06
   5451      1     69     76      0.1961          0.6804E+06
   5452      1     69     77      0.2139          0.6804E+06
   5453      1     69     78      0.2266          0.6804E+06
   5454      1     69     79      0.2356          0.6804E+06
   5455      1     69     80      0.2419          0.6804E+06
   5456      1     69     81      0.2478          0.6804E+06
   5457      1     69     82      0.2529          0.6804E+06
   5458      1     69     83      0.2568          0.6804E+06
   5459      1     69     84      0.2613          0.6804E+06
   5460      1     69     85      0.2668          0.6804E+06
   5461      1     69     86      0.2738          0.6804E+06
   5462      1     69     87      0.2799          0.6804E+06
   5463      1     69     88      0.2842          0.6804E+06
   5464      1     69     89      0.2875          0.6804E+06
   5465      1     69     90      0.2910          0.6804E+06
   5466      1     69     91      0.2939          0.6804E+06
   5467      1     69     92      0.2977          0.6804E+06
   5468      1     69     93      0.3013          0.6804E+06
   5469      1     69     94      0.3057          0.6804E+06
   5470      1     69     95      0.3107          0.6804E+06
   5471      1     69     96      0.3151          0.6804E+06
   5472      1     69     97      0.3197          0.6804E+06
   5473      1     69     98      0.3226          0.6804E+06
   5474      1     69     99      0.3242          0.6804E+06
   5475      1     69    100      0.3248          0.6804E+06
   5476      1     70      1       1.039          0.6804E+06
   5477      1     70      2      0.9961          0.6804E+06
   5478      1     70      3      0.9560          0.6804E+06
   5479      1     70      4      0.9038          0.6804E+06
   5480      1     70      5      0.8388          0.6804E+06
   5481      1     70      6      0.7754          0.6804E+06
   5482      1     70      7      0.7007          0.6804E+06
   5483      1     70      8      0.6222          0.6804E+06
   5484      1     70      9      0.5448          0.6804E+06
   5485      1     70     10      0.4475          0.6804E+06
   5486      1     70     11      0.3687          0.6804E+06
   5487      1     70     12      0.2960          0.6804E+06
   5488      1     70     13      0.2494          0.6804E+06
   5489      1     70     14      0.2283          0.6804E+06
   5490      1     70     15      0.2144          0.6804E+06
   5491      1     70     16      0.2064          0.6804E+06
   5492      1     70     17      0.2007          0.6804E+06
   5493      1     70     18      0.1982          0.6804E+06
   5494      1     70     19      0.1961          0.6804E+06
   5495      1     70     20      0.1884          0.6804E+06
   5496      1     70     21      0.1725          0.6804E+06
   5497      1     70     22      0.1517          0.6804E+06
   5498      1     70     23      0.1269          0.6804E+06
   5499      1     70     24      0.1067          0.6804E+06
   5500      1     70     25      0.8626E-01      0.6804E+06
   5501      1     70     26      0.7133E-01      0.6804E+06
   5502      1     70     27      0.7160E-01      0.6804E+06
   5503      1     70     28      0.7754E-01      0.6804E+06
   5504      1     70     29      0.8380E-01      0.6804E+06
   5505      1     70     30      0.8768E-01      0.6804E+06
   5506      1     70     72      0.1065          0.6804E+06
   5507      1     70     73      0.1390          0.6804E+06
   5508      1     70     74      0.1710          0.6804E+06
   5509      1     70     75      0.1963          0.6804E+06
   5510      1     70     76      0.2208          0.6804E+06
   5511      1     70     77      0.2365          0.6804E+06
   5512      1     70     78      0.2472          0.6804E+06
   5513      1     70     79      0.2544          0.6804E+06
   5514      1     70     80      0.2592          0.6804E+06
   5515      1     70     81      0.2632          0.6804E+06
   5516      1     70     82      0.2654          0.6804E+06
   5517      1     70     83      0.2680          0.6804E+06
   5518      1     70     84      0.2721          0.6804E+06
   5519      1     70     85      0.2763          0.6804E+06
   5520      1     70     86      0.2816          0.6804E+06
   5521      1     70     87      0.2863          0.6804E+06
   5522      1     70     88      0.2897          0.6804E+06
   5523      1     70     89      0.2926          0.6804E+06
   5524      1     70     90      0.2956          0.6804E+06
   5525      1     70     91      0.2985          0.6804E+06
   5526      1     70     92      0.3021          0.6804E+06
   5527      1     70     93      0.3053          0.6804E+06
   5528      1     70     94      0.3094          0.6804E+06
   5529      1     70     95      0.3138          0.6804E+06
   5530      1     70     96      0.3177          0.6804E+06
   5531      1     70     97      0.3216          0.6804E+06
   5532      1     70     98      0.3241          0.6804E+06
   5533      1     70     99      0.3260          0.6804E+06
   5534      1     70    100      0.3269          0.6804E+06
   5535      1     71      1       1.044          0.6804E+06
   5536      1     71      2       1.012          0.6804E+06
   5537      1     71      3      0.9810          0.6804E+06
   5538      1     71      4      0.9393          0.6804E+06
   5539      1     71      5      0.8874          0.6804E+06
   5540      1     71      6      0.8357          0.6804E+06
   5541      1     71      7      0.7698          0.6804E+06
   5542      1     71      8      0.6933          0.6804E+06
   5543      1     71      9      0.6115          0.6804E+06
   5544      1     71     10      0.5047          0.6804E+06
   5545      1     71     11      0.4131          0.6804E+06
   5546      1     71     12      0.3265          0.6804E+06
   5547      1     71     13      0.2751          0.6804E+06
   5548      1     71     14      0.2534          0.6804E+06
   5549      1     71     15      0.2384          0.6804E+06
   5550      1     71     16      0.2288          0.6804E+06
   5551      1     71     17      0.2208          0.6804E+06
   5552      1     71     18      0.2147          0.6804E+06
   5553      1     71     19      0.2103          0.6804E+06
   5554      1     71     20      0.2004          0.6804E+06
   5555      1     71     21      0.1819          0.6804E+06
   5556      1     71     22      0.1587          0.6804E+06
   5557      1     71     23      0.1336          0.6804E+06
   5558      1     71     24      0.1141          0.6804E+06
   5559      1     71     25      0.9519E-01      0.6804E+06
   5560      1     71     26      0.8224E-01      0.6804E+06
   5561      1     71     27      0.7984E-01      0.6804E+06
   5562      1     71     28      0.8187E-01      0.6804E+06
   5563      1     71     29      0.8450E-01      0.6804E+06
   5564      1     71     30      0.8545E-01      0.6804E+06
   5565      1     71     74      0.2032          0.6804E+06
   5566      1     71     75      0.2267          0.6804E+06
   5567      1     71     76      0.2487          0.6804E+06
   5568      1     71     77      0.2610          0.6804E+06
   5569      1     71     78      0.2689          0.6804E+06
   5570      1     71     79      0.2737          0.6804E+06
   5571      1     71     80      0.2767          0.6804E+06
   5572      1     71     81      0.2788          0.6804E+06
   5573      1     71     82      0.2788          0.6804E+06
   5574      1     71     83      0.2797          0.6804E+06
   5575      1     71     84      0.2822          0.6804E+06
   5576      1     71     85      0.2846          0.6804E+06
   5577      1     71     86      0.2880          0.6804E+06
   5578      1     71     87      0.2912          0.6804E+06
   5579      1     71     88      0.2935          0.6804E+06
   5580      1     71     89      0.2961          0.6804E+06
   5581      1     71     90      0.2989          0.6804E+06
   5582      1     71     91      0.3017          0.6804E+06
   5583      1     71     92      0.3053          0.6804E+06
   5584      1     71     93      0.3083          0.6804E+06
   5585      1     71     94      0.3120          0.6804E+06
   5586      1     71     95      0.3160          0.6804E+06
   5587      1     71     96      0.3194          0.6804E+06
   5588      1     71     97      0.3226          0.6804E+06
   5589      1     71     98      0.3249          0.6804E+06
   5590      1     71     99      0.3268          0.6804E+06
   5591      1     71    100      0.3278          0.6804E+06
   5592      1     72      1       1.041          0.6804E+06
   5593      1     72      2       1.017          0.6804E+06
   5594      1     72      3      0.9919          0.6804E+06
   5595      1     72      4      0.9595          0.6804E+06
   5596      1     72      5      0.9222          0.6804E+06
   5597      1     72      6      0.8850          0.6804E+06
   5598      1     72      7      0.8329          0.6804E+06
   5599      1     72      8      0.7633          0.6804E+06
   5600      1     72      9      0.6782          0.6804E+06
   5601      1     72     10      0.5649          0.6804E+06
   5602      1     72     11      0.4641          0.6804E+06
   5603      1     72     12      0.3678          0.6804E+06
   5604      1     72     13      0.3126          0.6804E+06
   5605      1     72     14      0.2887          0.6804E+06
   5606      1     72     15      0.2699          0.6804E+06
   5607      1     72     16      0.2557          0.6804E+06
   5608      1     72     17      0.2422          0.6804E+06
   5609      1     72     18      0.2301          0.6804E+06
   5610      1     72     19      0.2203          0.6804E+06
   5611      1     72     20      0.2058          0.6804E+06
   5612      1     72     21      0.1849          0.6804E+06
   5613      1     72     22      0.1623          0.6804E+06
   5614      1     72     23      0.1385          0.6804E+06
   5615      1     72     24      0.1200          0.6804E+06
   5616      1     72     25      0.1024          0.6804E+06
   5617      1     72     26      0.9081E-01      0.6804E+06
   5618      1     72     27      0.8636E-01      0.6804E+06
   5619      1     72     28      0.8408E-01      0.6804E+06
   5620      1     72     29      0.8199E-01      0.6804E+06
   5621      1     72     30      0.7946E-01      0.6804E+06
   5622      1     72     31      0.8053E-01      0.6804E+06
   5623      1     72     76      0.2759          0.6804E+06
   5624      1     72     77      0.2839          0.6804E+06
   5625      1     72     78      0.2884          0.6804E+06
   5626      1     72     79      0.2909          0.6804E+06
   5627      1     72     80      0.2920          0.6804E+06
   5628      1     72     81      0.2922          0.6804E+06
   5629      1     72     82      0.2904          0.6804E+06
   5630      1     72     83      0.2896          0.6804E+06
   5631      1     72     84      0.2901          0.6804E+06
   5632      1     72     85      0.2908          0.6804E+06
   5633      1     72     86      0.2924          0.6804E+06
   5634      1     72     87      0.2942          0.6804E+06
   5635      1     72     88      0.2959          0.6804E+06
   5636      1     72     89      0.2982          0.6804E+06
   5637      1     72     90      0.3009          0.6804E+06
   5638      1     72     91      0.3037          0.6804E+06
   5639      1     72     92      0.3072          0.6804E+06
   5640      1     72     93      0.3101          0.6804E+06
   5641      1     72     94      0.3135          0.6804E+06
   5642      1     72     95      0.3171          0.6804E+06
   5643      1     72     96      0.3201          0.6804E+06
   5644      1     72     97      0.3230          0.6804E+06
   5645      1     72     98      0.3250          0.6804E+06
   5646      1     72     99      0.3267          0.6804E+06
   5647      1     72    100      0.3278          0.6804E+06
   5648      1     73      1       1.035          0.6804E+06
   5649      1     73      2       1.015          0.6804E+06
   5650      1     73      3      0.9945          0.6804E+06
   5651      1     73      4      0.9694          0.6804E+06
   5652      1     73      5      0.9434          0.6804E+06
   5653      1     73      6      0.9195          0.6804E+06
   5654      1     73      7      0.8851          0.6804E+06
   5655      1     73      8      0.8276          0.6804E+06
   5656      1     73      9      0.7387          0.6804E+06
   5657      1     73     10      0.6230          0.6804E+06
   5658      1     73     11      0.5239          0.6804E+06
   5659      1     73     12      0.4279          0.6804E+06
   5660      1     73     13      0.3649          0.6804E+06
   5661      1     73     14      0.3318          0.6804E+06
   5662      1     73     15      0.3039          0.6804E+06
   5663      1     73     16      0.2827          0.6804E+06
   5664      1     73     17      0.2617          0.6804E+06
   5665      1     73     18      0.2429          0.6804E+06
   5666      1     73     19      0.2268          0.6804E+06
   5667      1     73     20      0.2069          0.6804E+06
   5668      1     73     21      0.1843          0.6804E+06
   5669      1     73     22      0.1636          0.6804E+06
   5670      1     73     23      0.1416          0.6804E+06
   5671      1     73     24      0.1243          0.6804E+06
   5672      1     73     25      0.1073          0.6804E+06
   5673      1     73     26      0.9514E-01      0.6804E+06
   5674      1     73     27      0.8796E-01      0.6804E+06
   5675      1     73     28      0.8118E-01      0.6804E+06
   5676      1     73     29      0.7485E-01      0.6804E+06
   5677      1     73     30      0.6983E-01      0.6804E+06
   5678      1     73     31      0.6996E-01      0.6804E+06
   5679      1     73     32      0.7190E-01      0.6804E+06
   5680      1     73     78      0.3037          0.6804E+06
   5681      1     73     79      0.3039          0.6804E+06
   5682      1     73     80      0.3034          0.6804E+06
   5683      1     73     81      0.3019          0.6804E+06
   5684      1     73     82      0.2989          0.6804E+06
   5685      1     73     83      0.2967          0.6804E+06
   5686      1     73     84      0.2956          0.6804E+06
   5687      1     73     85      0.2948          0.6804E+06
   5688      1     73     86      0.2950          0.6804E+06
   5689      1     73     87      0.2958          0.6804E+06
   5690      1     73     88      0.2970          0.6804E+06
   5691      1     73     89      0.2991          0.6804E+06
   5692      1     73     90      0.3017          0.6804E+06
   5693      1     73     91      0.3045          0.6804E+06
   5694      1     73     92      0.3080          0.6804E+06
   5695      1     73     93      0.3108          0.6804E+06
   5696      1     73     94      0.3140          0.6804E+06
   5697      1     73     95      0.3174          0.6804E+06
   5698      1     73     96      0.3201          0.6804E+06
   5699      1     73     97      0.3227          0.6804E+06
   5700      1     73     98      0.3246          0.6804E+06
   5701      1     73     99      0.3262          0.6804E+06
   5702      1     73    100      0.3273          0.6804E+06
   5703      1     74      1       1.026          0.6804E+06
   5704      1     74      2       1.008          0.6804E+06
   5705      1     74      3      0.9908          0.6804E+06
   5706      1     74      4      0.9715          0.6804E+06
   5707      1     74      5      0.9550          0.6804E+06
   5708      1     74      6      0.9410          0.6804E+06
   5709      1     74      7      0.9176          0.6804E+06
   5710      1     74      8      0.8699          0.6804E+06
   5711      1     74      9      0.7894          0.6804E+06
   5712      1     74     10      0.6835          0.6804E+06
   5713      1     74     11      0.5932          0.6804E+06
   5714      1     74     12      0.5029          0.6804E+06
   5715      1     74     13      0.4336          0.6804E+06
   5716      1     74     14      0.3892          0.6804E+06
   5717      1     74     15      0.3487          0.6804E+06
   5718      1     74     16      0.3174          0.6804E+06
   5719      1     74     17      0.2861          0.6804E+06
   5720      1     74     18      0.2591          0.6804E+06
   5721      1     74     19      0.2364          0.6804E+06
   5722      1     74     20      0.2106          0.6804E+06
   5723      1     74     21      0.1852          0.6804E+06
   5724      1     74     22      0.1656          0.6804E+06
   5725      1     74     23      0.1452          0.6804E+06
   5726      1     74     24      0.1289          0.6804E+06
   5727      1     74     25      0.1121          0.6804E+06
   5728      1     74     26      0.9792E-01      0.6804E+06
   5729      1     74     27      0.8700E-01      0.6804E+06
   5730      1     74     28      0.7528E-01      0.6804E+06
   5731      1     74     29      0.6438E-01      0.6804E+06
   5732      1     74     30      0.5653E-01      0.6804E+06
   5733      1     74     31      0.5697E-01      0.6804E+06
   5734      1     74     32      0.6116E-01      0.6804E+06
   5735      1     74     33      0.6568E-01      0.6804E+06
   5736      1     74     80      0.3134          0.6804E+06
   5737      1     74     81      0.3107          0.6804E+06
   5738      1     74     82      0.3066          0.6804E+06
   5739      1     74     83      0.3032          0.6804E+06
   5740      1     74     84      0.3003          0.6804E+06
   5741      1     74     85      0.2981          0.6804E+06
   5742      1     74     86      0.2966          0.6804E+06
   5743      1     74     87      0.2962          0.6804E+06
   5744      1     74     88      0.2971          0.6804E+06
   5745      1     74     89      0.2991          0.6804E+06
   5746      1     74     90      0.3018          0.6804E+06
   5747      1     74     91      0.3047          0.6804E+06
   5748      1     74     92      0.3082          0.6804E+06
   5749      1     74     93      0.3111          0.6804E+06
   5750      1     74     94      0.3142          0.6804E+06
   5751      1     74     95      0.3172          0.6804E+06
   5752      1     74     96      0.3197          0.6804E+06
   5753      1     74     97      0.3220          0.6804E+06
   5754      1     74     98      0.3237          0.6804E+06
   5755      1     74     99      0.3252          0.6804E+06
   5756      1     74    100      0.3263          0.6804E+06
   5757      1     75      1       1.016          0.6804E+06
   5758      1     75      2      0.9983          0.6804E+06
   5759      1     75      3      0.9817          0.6804E+06
   5760      1     75      4      0.9645          0.6804E+06
   5761      1     75      5      0.9552          0.6804E+06
   5762      1     75      6      0.9469          0.6804E+06
   5763      1     75      7      0.9281          0.6804E+06
   5764      1     75      8      0.8868          0.6804E+06
   5765      1     75      9      0.8213          0.6804E+06
   5766      1     75     10      0.7319          0.6804E+06
   5767      1     75     11      0.6532          0.6804E+06
   5768      1     75     12      0.5702          0.6804E+06
   5769      1     75     13      0.4986          0.6804E+06
   5770      1     75     14      0.4465          0.6804E+06
   5771      1     75     15      0.3956          0.6804E+06
   5772      1     75     16      0.3550          0.6804E+06
   5773      1     75     17      0.3131          0.6804E+06
   5774      1     75     18      0.2790          0.6804E+06
   5775      1     75     19      0.2512          0.6804E+06
   5776      1     75     20      0.2205          0.6804E+06
   5777      1     75     21      0.1922          0.6804E+06
   5778      1     75     22      0.1718          0.6804E+06
   5779      1     75     23      0.1510          0.6804E+06
   5780      1     75     24      0.1344          0.6804E+06
   5781      1     75     25      0.1171          0.6804E+06
   5782      1     75     26      0.1013          0.6804E+06
   5783      1     75     27      0.8772E-01      0.6804E+06
   5784      1     75     28      0.7226E-01      0.6804E+06
   5785      1     75     29      0.5739E-01      0.6804E+06
   5786      1     75     30      0.4658E-01      0.6804E+06
   5787      1     75     31      0.4732E-01      0.6804E+06
   5788      1     75     32      0.5269E-01      0.6804E+06
   5789      1     75     33      0.5864E-01      0.6804E+06
   5790      1     75     34      0.6090E-01      0.6804E+06
   5791      1     75     35      0.5981E-01      0.6804E+06
   5792      1     75     36      0.5356E-01      0.6804E+06
   5793      1     75     37      0.4033E-01      0.6804E+06
   5794      1     75     38      0.2141E-01      0.6804E+06
   5795      1     75     39     -0.4928E-02      0.6804E+06
   5796      1     75     40     -0.4860E-01      0.6804E+06
   5797      1     75     82      0.3118          0.6804E+06
   5798      1     75     83      0.3075          0.6804E+06
   5799      1     75     84      0.3034          0.6804E+06
   5800      1     75     85      0.3000          0.6804E+06
   5801      1     75     86      0.2970          0.6804E+06
   5802      1     75     87      0.2954          0.6804E+06
   5803      1     75     88      0.2959          0.6804E+06
   5804      1     75     89      0.2979          0.6804E+06
   5805      1     75     90      0.3010          0.6804E+06
   5806      1     75     91      0.3042          0.6804E+06
   5807      1     75     92      0.3080          0.6804E+06
   5808      1     75     93      0.3110          0.6804E+06
   5809      1     75     94      0.3141          0.6804E+06
   5810      1     75     95      0.3169          0.6804E+06
   5811      1     75     96      0.3190          0.6804E+06
   5812      1     75     97      0.3210          0.6804E+06
   5813      1     75     98      0.3225          0.6804E+06
   5814      1     75     99      0.3240          0.6804E+06
   5815      1     75    100      0.3251          0.6804E+06
   5816      1     76      1       1.008          0.6804E+06
   5817      1     76      2      0.9897          0.6804E+06
   5818      1     76      3      0.9721          0.6804E+06
   5819      1     76      4      0.9540          0.6804E+06
   5820      1     76      5      0.9498          0.6804E+06
   5821      1     76      6      0.9446          0.6804E+06
   5822      1     76      7      0.9283          0.6804E+06
   5823      1     76      8      0.8926          0.6804E+06
   5824      1     76      9      0.8398          0.6804E+06
   5825      1     76     10      0.7654          0.6804E+06
   5826      1     76     11      0.6969          0.6804E+06
   5827      1     76     12      0.6210          0.6804E+06
   5828      1     76     13      0.5498          0.6804E+06
   5829      1     76     14      0.4940          0.6804E+06
   5830      1     76     15      0.4369          0.6804E+06
   5831      1     76     16      0.3905          0.6804E+06
   5832      1     76     17      0.3418          0.6804E+06
   5833      1     76     18      0.3015          0.6804E+06
   5834      1     76     19      0.2689          0.6804E+06
   5835      1     76     20      0.2341          0.6804E+06
   5836      1     76     21      0.2034          0.6804E+06
   5837      1     76     22      0.1810          0.6804E+06
   5838      1     76     23      0.1586          0.6804E+06
   5839      1     76     24      0.1410          0.6804E+06
   5840      1     76     25      0.1227          0.6804E+06
   5841      1     76     26      0.1048          0.6804E+06
   5842      1     76     27      0.9022E-01      0.6804E+06
   5843      1     76     28      0.7400E-01      0.6804E+06
   5844      1     76     29      0.5855E-01      0.6804E+06
   5845      1     76     30      0.4888E-01      0.6804E+06
   5846      1     76     31      0.4634E-01      0.6804E+06
   5847      1     76     32      0.4826E-01      0.6804E+06
   5848      1     76     33      0.5256E-01      0.6804E+06
   5849      1     76     34      0.5650E-01      0.6804E+06
   5850      1     76     35      0.5869E-01      0.6804E+06
   5851      1     76     36      0.5778E-01      0.6804E+06
   5852      1     76     37      0.5154E-01      0.6804E+06
   5853      1     76     38      0.4008E-01      0.6804E+06
   5854      1     76     39      0.1864E-01      0.6804E+06
   5855      1     76     40     -0.8048E-02      0.6804E+06
   5856      1     76     41     -0.6197E-01      0.6804E+06
   5857      1     76     42     -0.1574          0.6804E+06
   5858      1     76     43     -0.2362          0.6804E+06
   5859      1     76     44     -0.2399          0.6804E+06
   5860      1     76     45     -0.2224          0.6804E+06
   5861      1     76     46     -0.1938          0.6804E+06
   5862      1     76     47     -0.1576          0.6804E+06
   5863      1     76     48     -0.1292          0.6804E+06
   5864      1     76     49     -0.9142E-01      0.6804E+06
   5865      1     76     50     -0.8323E-01      0.6804E+06
   5866      1     76     51     -0.7015E-01      0.6804E+06
   5867      1     76     52     -0.8705E-01      0.6804E+06
   5868      1     76     53     -0.9422E-01      0.6804E+06
   5869      1     76     54     -0.6810E-01      0.6804E+06
   5870      1     76     55     -0.5578E-01      0.6804E+06
   5871      1     76     83      0.3105          0.6804E+06
   5872      1     76     84      0.3053          0.6804E+06
   5873      1     76     85      0.3009          0.6804E+06
   5874      1     76     86      0.2964          0.6804E+06
   5875      1     76     87      0.2937          0.6804E+06
   5876      1     76     88      0.2939          0.6804E+06
   5877      1     76     89      0.2966          0.6804E+06
   5878      1     76     90      0.3003          0.6804E+06
   5879      1     76     91      0.3038          0.6804E+06
   5880      1     76     92      0.3079          0.6804E+06
   5881      1     76     93      0.3109          0.6804E+06
   5882      1     76     94      0.3140          0.6804E+06
   5883      1     76     95      0.3165          0.6804E+06
   5884      1     76     96      0.3184          0.6804E+06
   5885      1     76     97      0.3200          0.6804E+06
   5886      1     76     98      0.3214          0.6804E+06
   5887      1     76     99      0.3228          0.6804E+06
   5888      1     76    100      0.3241          0.6804E+06
   5889      1     77      1       1.001          0.6804E+06
   5890      1     77      2      0.9839          0.6804E+06
   5891      1     77      3      0.9683          0.6804E+06
   5892      1     77      4      0.9532          0.6804E+06
   5893      1     77      5      0.9484          0.6804E+06
   5894      1     77      6      0.9436          0.6804E+06
   5895      1     77      7      0.9310          0.6804E+06
   5896      1     77      8      0.9031          0.6804E+06
   5897      1     77      9      0.8591          0.6804E+06
   5898      1     77     10      0.7963          0.6804E+06
   5899      1     77     11      0.7374          0.6804E+06
   5900      1     77     12      0.6697          0.6804E+06
   5901      1     77     13      0.6008          0.6804E+06
   5902      1     77     14      0.5437          0.6804E+06
   5903      1     77     15      0.4831          0.6804E+06
   5904      1     77     16      0.4330          0.6804E+06
   5905      1     77     17      0.3796          0.6804E+06
   5906      1     77     18      0.3320          0.6804E+06
   5907      1     77     19      0.2933          0.6804E+06
   5908      1     77     20      0.2531          0.6804E+06
   5909      1     77     21      0.2191          0.6804E+06
   5910      1     77     22      0.1943          0.6804E+06
   5911      1     77     23      0.1700          0.6804E+06
   5912      1     77     24      0.1513          0.6804E+06
   5913      1     77     25      0.1318          0.6804E+06
   5914      1     77     26      0.1117          0.6804E+06
   5915      1     77     27      0.9592E-01      0.6804E+06
   5916      1     77     28      0.7905E-01      0.6804E+06
   5917      1     77     29      0.6318E-01      0.6804E+06
   5918      1     77     30      0.5343E-01      0.6804E+06
   5919      1     77     31      0.4698E-01      0.6804E+06
   5920      1     77     32      0.4501E-01      0.6804E+06
   5921      1     77     33      0.4714E-01      0.6804E+06
   5922      1     77     34      0.5264E-01      0.6804E+06
   5923      1     77     35      0.5666E-01      0.6804E+06
   5924      1     77     36      0.5944E-01      0.6804E+06
   5925      1     77     37      0.5884E-01      0.6804E+06
   5926      1     77     38      0.5307E-01      0.6804E+06
   5927      1     77     39      0.3792E-01      0.6804E+06
   5928      1     77     40      0.1553E-01      0.6804E+06
   5929      1     77     41     -0.1409E-01      0.6804E+06
   5930      1     77     42     -0.6773E-01      0.6804E+06
   5931      1     77     43     -0.1318          0.6804E+06
   5932      1     77     44     -0.2024          0.6804E+06
   5933      1     77     45     -0.2205          0.6804E+06
   5934      1     77     46     -0.1914          0.6804E+06
   5935      1     77     47     -0.1720          0.6804E+06
   5936      1     77     48     -0.1567          0.6804E+06
   5937      1     77     49     -0.1345          0.6804E+06
   5938      1     77     50     -0.1181          0.6804E+06
   5939      1     77     51     -0.1069          0.6804E+06
   5940      1     77     52     -0.1091          0.6804E+06
   5941      1     77     53     -0.1079          0.6804E+06
   5942      1     77     54     -0.9501E-01      0.6804E+06
   5943      1     77     55     -0.1144          0.6804E+06
   5944      1     77     56     -0.9585E-01      0.6804E+06
   5945      1     77     57     -0.3554E-01      0.6804E+06
   5946      1     77     58      0.9135E-02      0.6804E+06
   5947      1     77     59      0.2871E-01      0.6804E+06
   5948      1     77     60      0.4551E-01      0.6804E+06
   5949      1     77     61      0.5443E-01      0.6804E+06
   5950      1     77     62      0.6121E-01      0.6804E+06
   5951      1     77     63      0.6980E-01      0.6804E+06
   5952      1     77     84      0.3073          0.6804E+06
   5953      1     77     85      0.3018          0.6804E+06
   5954      1     77     86      0.2957          0.6804E+06
   5955      1     77     87      0.2917          0.6804E+06
   5956      1     77     88      0.2919          0.6804E+06
   5957      1     77     89      0.2956          0.6804E+06
   5958      1     77     90      0.3000          0.6804E+06
   5959      1     77     91      0.3039          0.6804E+06
   5960      1     77     92      0.3081          0.6804E+06
   5961      1     77     93      0.3112          0.6804E+06
   5962      1     77     94      0.3141          0.6804E+06
   5963      1     77     95      0.3165          0.6804E+06
   5964      1     77     96      0.3179          0.6804E+06
   5965      1     77     97      0.3191          0.6804E+06
   5966      1     77     98      0.3202          0.6804E+06
   5967      1     77     99      0.3217          0.6804E+06
   5968      1     77    100      0.3232          0.6804E+06
   5969      1     78      1      0.9966          0.6804E+06
   5970      1     78      2      0.9815          0.6804E+06
   5971      1     78      3      0.9683          0.6804E+06
   5972      1     78      4      0.9558          0.6804E+06
   5973      1     78      5      0.9494          0.6804E+06
   5974      1     78      6      0.9436          0.6804E+06
   5975      1     78      7      0.9321          0.6804E+06
   5976      1     78      8      0.9085          0.6804E+06
   5977      1     78      9      0.8707          0.6804E+06
   5978      1     78     10      0.8162          0.6804E+06
   5979      1     78     11      0.7641          0.6804E+06
   5980      1     78     12      0.7026          0.6804E+06
   5981      1     78     13      0.6378          0.6804E+06
   5982      1     78     14      0.5822          0.6804E+06
   5983      1     78     15      0.5215          0.6804E+06
   5984      1     78     16      0.4701          0.6804E+06
   5985      1     78     17      0.4138          0.6804E+06
   5986      1     78     18      0.3609          0.6804E+06
   5987      1     78     19      0.3169          0.6804E+06
   5988      1     78     20      0.2711          0.6804E+06
   5989      1     78     21      0.2337          0.6804E+06
   5990      1     78     22      0.2077          0.6804E+06
   5991      1     78     23      0.1826          0.6804E+06
   5992      1     78     24      0.1633          0.6804E+06
   5993      1     78     25      0.1426          0.6804E+06
   5994      1     78     26      0.1209          0.6804E+06
   5995      1     78     27      0.1036          0.6804E+06
   5996      1     78     28      0.8531E-01      0.6804E+06
   5997      1     78     29      0.6839E-01      0.6804E+06
   5998      1     78     30      0.5733E-01      0.6804E+06
   5999      1     78     31      0.4869E-01      0.6804E+06
   6000      1     78     32      0.4477E-01      0.6804E+06
   6001      1     78     33      0.4533E-01      0.6804E+06
   6002      1     78     34      0.5114E-01      0.6804E+06
   6003      1     78     35      0.5588E-01      0.6804E+06
   6004      1     78     36      0.5993E-01      0.6804E+06
   6005      1     78     37      0.6158E-01      0.6804E+06
   6006      1     78     38      0.5956E-01      0.6804E+06
   6007      1     78     39      0.4993E-01      0.6804E+06
   6008      1     78     40      0.3469E-01      0.6804E+06
   6009      1     78     41      0.1050E-01      0.6804E+06
   6010      1     78     42     -0.1511E-01      0.6804E+06
   6011      1     78     43     -0.4454E-01      0.6804E+06
   6012      1     78     44     -0.1072          0.6804E+06
   6013      1     78     45     -0.1426          0.6804E+06
   6014      1     78     46     -0.1364          0.6804E+06
   6015      1     78     47     -0.1325          0.6804E+06
   6016      1     78     48     -0.1254          0.6804E+06
   6017      1     78     49     -0.1234          0.6804E+06
   6018      1     78     50     -0.1231          0.6804E+06
   6019      1     78     51     -0.1226          0.6804E+06
   6020      1     78     52     -0.1204          0.6804E+06
   6021      1     78     53     -0.1176          0.6804E+06
   6022      1     78     54     -0.1074          0.6804E+06
   6023      1     78     55     -0.7695E-01      0.6804E+06
   6024      1     78     56     -0.3721E-01      0.6804E+06
   6025      1     78     57      0.4687E-03      0.6804E+06
   6026      1     78     58      0.2799E-01      0.6804E+06
   6027      1     78     59      0.4653E-01      0.6804E+06
   6028      1     78     60      0.6140E-01      0.6804E+06
   6029      1     78     61      0.6920E-01      0.6804E+06
   6030      1     78     62      0.7526E-01      0.6804E+06
   6031      1     78     63      0.8481E-01      0.6804E+06
   6032      1     78     64      0.9788E-01      0.6804E+06
   6033      1     78     65      0.1202          0.6804E+06
   6034      1     78     66      0.1457          0.6804E+06
   6035      1     78     85      0.3031          0.6804E+06
   6036      1     78     86      0.2962          0.6804E+06
   6037      1     78     87      0.2915          0.6804E+06
   6038      1     78     88      0.2918          0.6804E+06
   6039      1     78     89      0.2960          0.6804E+06
   6040      1     78     90      0.3008          0.6804E+06
   6041      1     78     91      0.3047          0.6804E+06
   6042      1     78     92      0.3089          0.6804E+06
   6043      1     78     93      0.3119          0.6804E+06
   6044      1     78     94      0.3148          0.6804E+06
   6045      1     78     95      0.3169          0.6804E+06
   6046      1     78     96      0.3182          0.6804E+06
   6047      1     78     97      0.3189          0.6804E+06
   6048      1     78     98      0.3198          0.6804E+06
   6049      1     78     99      0.3214          0.6804E+06
   6050      1     78    100      0.3231          0.6804E+06
   6051      1     79      1      0.9930          0.6804E+06
   6052      1     79      2      0.9799          0.6804E+06
   6053      1     79      3      0.9688          0.6804E+06
   6054      1     79      4      0.9581          0.6804E+06
   6055      1     79      5      0.9501          0.6804E+06
   6056      1     79      6      0.9428          0.6804E+06
   6057      1     79      7      0.9308          0.6804E+06
   6058      1     79      8      0.9096          0.6804E+06
   6059      1     79      9      0.8781          0.6804E+06
   6060      1     79     10      0.8324          0.6804E+06
   6061      1     79     11      0.7875          0.6804E+06
   6062      1     79     12      0.7324          0.6804E+06
   6063      1     79     13      0.6734          0.6804E+06
   6064      1     79     14      0.6212          0.6804E+06
   6065      1     79     15      0.5627          0.6804E+06
   6066      1     79     16      0.5119          0.6804E+06
   6067      1     79     17      0.4540          0.6804E+06
   6068      1     79     18      0.3961          0.6804E+06
   6069      1     79     19      0.3456          0.6804E+06
   6070      1     79     20      0.2921          0.6804E+06
   6071      1     79     21      0.2510          0.6804E+06
   6072      1     79     22      0.2254          0.6804E+06
   6073      1     79     23      0.2012          0.6804E+06
   6074      1     79     24      0.1819          0.6804E+06
   6075      1     79     25      0.1598          0.6804E+06
   6076      1     79     26      0.1358          0.6804E+06
   6077      1     79     27      0.1158          0.6804E+06
   6078      1     79     28      0.9451E-01      0.6804E+06
   6079      1     79     29      0.7495E-01      0.6804E+06
   6080      1     79     30      0.6192E-01      0.6804E+06
   6081      1     79     31      0.5244E-01      0.6804E+06
   6082      1     79     32      0.4801E-01      0.6804E+06
   6083      1     79     33      0.4721E-01      0.6804E+06
   6084      1     79     34      0.5186E-01      0.6804E+06
   6085      1     79     35      0.5652E-01      0.6804E+06
   6086      1     79     36      0.6092E-01      0.6804E+06
   6087      1     79     37      0.6354E-01      0.6804E+06
   6088      1     79     38      0.6399E-01      0.6804E+06
   6089      1     79     39      0.5964E-01      0.6804E+06
   6090      1     79     40      0.5134E-01      0.6804E+06
   6091      1     79     41      0.3708E-01      0.6804E+06
   6092      1     79     42      0.1872E-01      0.6804E+06
   6093      1     79     43      0.2921E-02      0.6804E+06
   6094      1     79     44     -0.2848E-01      0.6804E+06
   6095      1     79     45     -0.4160E-01      0.6804E+06
   6096      1     79     46     -0.2580E-01      0.6804E+06
   6097      1     79     47     -0.2476E-01      0.6804E+06
   6098      1     79     48     -0.2898E-01      0.6804E+06
   6099      1     79     49     -0.3123E-01      0.6804E+06
   6100      1     79     50     -0.2816E-01      0.6804E+06
   6101      1     79     51     -0.2968E-01      0.6804E+06
   6102      1     79     52     -0.2876E-01      0.6804E+06
   6103      1     79     53     -0.2502E-01      0.6804E+06
   6104      1     79     54     -0.1882E-01      0.6804E+06
   6105      1     79     55     -0.8717E-02      0.6804E+06
   6106      1     79     56      0.8236E-02      0.6804E+06
   6107      1     79     57      0.3112E-01      0.6804E+06
   6108      1     79     58      0.5396E-01      0.6804E+06
   6109      1     79     59      0.6928E-01      0.6804E+06
   6110      1     79     60      0.8204E-01      0.6804E+06
   6111      1     79     61      0.8909E-01      0.6804E+06
   6112      1     79     62      0.9480E-01      0.6804E+06
   6113      1     79     63      0.1052          0.6804E+06
   6114      1     79     64      0.1229          0.6804E+06
   6115      1     79     65      0.1452          0.6804E+06
   6116      1     79     66      0.1663          0.6804E+06
   6117      1     79     67      0.1837          0.6804E+06
   6118      1     79     68      0.2034          0.6804E+06
   6119      1     79     86      0.3006          0.6804E+06
   6120      1     79     87      0.2967          0.6804E+06
   6121      1     79     88      0.2965          0.6804E+06
   6122      1     79     89      0.2994          0.6804E+06
   6123      1     79     90      0.3033          0.6804E+06
   6124      1     79     91      0.3068          0.6804E+06
   6125      1     79     92      0.3107          0.6804E+06
   6126      1     79     93      0.3136          0.6804E+06
   6127      1     79     94      0.3163          0.6804E+06
   6128      1     79     95      0.3184          0.6804E+06
   6129      1     79     96      0.3195          0.6804E+06
   6130      1     79     97      0.3201          0.6804E+06
   6131      1     79     98      0.3208          0.6804E+06
   6132      1     79     99      0.3223          0.6804E+06
   6133      1     79    100      0.3238          0.6804E+06
   6134      1     80      1      0.9899          0.6804E+06
   6135      1     80      2      0.9776          0.6804E+06
   6136      1     80      3      0.9673          0.6804E+06
   6137      1     80      4      0.9571          0.6804E+06
   6138      1     80      5      0.9485          0.6804E+06
   6139      1     80      6      0.9403          0.6804E+06
   6140      1     80      7      0.9277          0.6804E+06
   6141      1     80      8      0.9079          0.6804E+06
   6142      1     80      9      0.8820          0.6804E+06
   6143      1     80     10      0.8444          0.6804E+06
   6144      1     80     11      0.8063          0.6804E+06
   6145      1     80     12      0.7577          0.6804E+06
   6146      1     80     13      0.7044          0.6804E+06
   6147      1     80     14      0.6562          0.6804E+06
   6148      1     80     15      0.6013          0.6804E+06
   6149      1     80     16      0.5529          0.6804E+06
   6150      1     80     17      0.4964          0.6804E+06
   6151      1     80     18      0.4353          0.6804E+06
   6152      1     80     19      0.3786          0.6804E+06
   6153      1     80     20      0.3165          0.6804E+06
   6154      1     80     21      0.2724          0.6804E+06
   6155      1     80     22      0.2494          0.6804E+06
   6156      1     80     23      0.2278          0.6804E+06
   6157      1     80     24      0.2080          0.6804E+06
   6158      1     80     25      0.1835          0.6804E+06
   6159      1     80     26      0.1560          0.6804E+06
   6160      1     80     27      0.1323          0.6804E+06
   6161      1     80     28      0.1066          0.6804E+06
   6162      1     80     29      0.8268E-01      0.6804E+06
   6163      1     80     30      0.6861E-01      0.6804E+06
   6164      1     80     31      0.5917E-01      0.6804E+06
   6165      1     80     32      0.5480E-01      0.6804E+06
   6166      1     80     33      0.5309E-01      0.6804E+06
   6167      1     80     34      0.5534E-01      0.6804E+06
   6168      1     80     35      0.5882E-01      0.6804E+06
   6169      1     80     36      0.6308E-01      0.6804E+06
   6170      1     80     37      0.6638E-01      0.6804E+06
   6171      1     80     38      0.6723E-01      0.6804E+06
   6172      1     80     39      0.6600E-01      0.6804E+06
   6173      1     80     40      0.6264E-01      0.6804E+06
   6174      1     80     41      0.5548E-01      0.6804E+06
   6175      1     80     42      0.4323E-01      0.6804E+06
   6176      1     80     43      0.2925E-01      0.6804E+06
   6177      1     80     44      0.1918E-01      0.6804E+06
   6178      1     80     45      0.1882E-01      0.6804E+06
   6179      1     80     46      0.2445E-01      0.6804E+06
   6180      1     80     47      0.2457E-01      0.6804E+06
   6181      1     80     48      0.1905E-01      0.6804E+06
   6182      1     80     49      0.1358E-01      0.6804E+06
   6183      1     80     50      0.1938E-01      0.6804E+06
   6184      1     80     51      0.2135E-01      0.6804E+06
   6185      1     80     52      0.2242E-01      0.6804E+06
   6186      1     80     53      0.2361E-01      0.6804E+06
   6187      1     80     54      0.2176E-01      0.6804E+06
   6188      1     80     55      0.3291E-01      0.6804E+06
   6189      1     80     56      0.4648E-01      0.6804E+06
   6190      1     80     57      0.6447E-01      0.6804E+06
   6191      1     80     58      0.8213E-01      0.6804E+06
   6192      1     80     59      0.9504E-01      0.6804E+06
   6193      1     80     60      0.1072          0.6804E+06
   6194      1     80     61      0.1153          0.6804E+06
   6195      1     80     62      0.1229          0.6804E+06
   6196      1     80     63      0.1327          0.6804E+06
   6197      1     80     64      0.1487          0.6804E+06
   6198      1     80     65      0.1686          0.6804E+06
   6199      1     80     66      0.1877          0.6804E+06
   6200      1     80     67      0.2039          0.6804E+06
   6201      1     80     68      0.2225          0.6804E+06
   6202      1     80     69      0.2374          0.6804E+06
   6203      1     80     70      0.2532          0.6804E+06
   6204      1     80     71      0.2698          0.6804E+06
   6205      1     80     88      0.3024          0.6804E+06
   6206      1     80     89      0.3041          0.6804E+06
   6207      1     80     90      0.3070          0.6804E+06
   6208      1     80     91      0.3099          0.6804E+06
   6209      1     80     92      0.3132          0.6804E+06
   6210      1     80     93      0.3160          0.6804E+06
   6211      1     80     94      0.3187          0.6804E+06
   6212      1     80     95      0.3209          0.6804E+06
   6213      1     80     96      0.3222          0.6804E+06
   6214      1     80     97      0.3232          0.6804E+06
   6215      1     80     98      0.3240          0.6804E+06
   6216      1     80     99      0.3250          0.6804E+06
   6217      1     80    100      0.3257          0.6804E+06
   6218      1     81      1      0.9873          0.6804E+06
   6219      1     81      2      0.9748          0.6804E+06
   6220      1     81      3      0.9642          0.6804E+06
   6221      1     81      4      0.9540          0.6804E+06
   6222      1     81      5      0.9456          0.6804E+06
   6223      1     81      6      0.9378          0.6804E+06
   6224      1     81      7      0.9260          0.6804E+06
   6225      1     81      8      0.9082          0.6804E+06
   6226      1     81      9      0.8861          0.6804E+06
   6227      1     81     10      0.8542          0.6804E+06
   6228      1     81     11      0.8212          0.6804E+06
   6229      1     81     12      0.7781          0.6804E+06
   6230      1     81     13      0.7292          0.6804E+06
   6231      1     81     14      0.6841          0.6804E+06
   6232      1     81     15      0.6324          0.6804E+06
   6233      1     81     16      0.5867          0.6804E+06
   6234      1     81     17      0.5332          0.6804E+06
   6235      1     81     18      0.4722          0.6804E+06
   6236      1     81     19      0.4140          0.6804E+06
   6237      1     81     20      0.3499          0.6804E+06
   6238      1     81     21      0.3059          0.6804E+06
   6239      1     81     22      0.2829          0.6804E+06
   6240      1     81     23      0.2601          0.6804E+06
   6241      1     81     24      0.2379          0.6804E+06
   6242      1     81     25      0.2098          0.6804E+06
   6243      1     81     26      0.1785          0.6804E+06
   6244      1     81     27      0.1509          0.6804E+06
   6245      1     81     28      0.1198          0.6804E+06
   6246      1     81     29      0.9064E-01      0.6804E+06
   6247      1     81     30      0.7631E-01      0.6804E+06
   6248      1     81     31      0.6747E-01      0.6804E+06
   6249      1     81     32      0.6310E-01      0.6804E+06
   6250      1     81     33      0.6036E-01      0.6804E+06
   6251      1     81     34      0.6055E-01      0.6804E+06
   6252      1     81     35      0.6221E-01      0.6804E+06
   6253      1     81     36      0.6534E-01      0.6804E+06
   6254      1     81     37      0.6907E-01      0.6804E+06
   6255      1     81     38      0.7030E-01      0.6804E+06
   6256      1     81     39      0.6990E-01      0.6804E+06
   6257      1     81     40      0.6899E-01      0.6804E+06
   6258      1     81     41      0.6721E-01      0.6804E+06
   6259      1     81     42      0.6061E-01      0.6804E+06
   6260      1     81     43      0.5408E-01      0.6804E+06
   6261      1     81     44      0.5025E-01      0.6804E+06
   6262      1     81     45      0.5074E-01      0.6804E+06
   6263      1     81     46      0.5356E-01      0.6804E+06
   6264      1     81     47      0.5413E-01      0.6804E+06
   6265      1     81     48      0.5197E-01      0.6804E+06
   6266      1     81     49      0.4898E-01      0.6804E+06
   6267      1     81     50      0.5022E-01      0.6804E+06
   6268      1     81     51      0.5167E-01      0.6804E+06
   6269      1     81     52      0.5304E-01      0.6804E+06
   6270      1     81     53      0.5547E-01      0.6804E+06
   6271      1     81     54      0.6126E-01      0.6804E+06
   6272      1     81     55      0.6774E-01      0.6804E+06
   6273      1     81     56      0.7753E-01      0.6804E+06
   6274      1     81     57      0.9229E-01      0.6804E+06
   6275      1     81     58      0.1069          0.6804E+06
   6276      1     81     59      0.1191          0.6804E+06
   6277      1     81     60      0.1316          0.6804E+06
   6278      1     81     61      0.1408          0.6804E+06
   6279      1     81     62      0.1502          0.6804E+06
   6280      1     81     63      0.1612          0.6804E+06
   6281      1     81     64      0.1742          0.6804E+06
   6282      1     81     65      0.1903          0.6804E+06
   6283      1     81     66      0.2068          0.6804E+06
   6284      1     81     67      0.2209          0.6804E+06
   6285      1     81     68      0.2372          0.6804E+06
   6286      1     81     69      0.2505          0.6804E+06
   6287      1     81     70      0.2648          0.6804E+06
   6288      1     81     71      0.2791          0.6804E+06
   6289      1     81     72      0.2915          0.6804E+06
   6290      1     81     73      0.3039          0.6804E+06
   6291      1     81     89      0.3084          0.6804E+06
   6292      1     81     90      0.3106          0.6804E+06
   6293      1     81     91      0.3130          0.6804E+06
   6294      1     81     92      0.3159          0.6804E+06
   6295      1     81     93      0.3186          0.6804E+06
   6296      1     81     94      0.3213          0.6804E+06
   6297      1     81     95      0.3236          0.6804E+06
   6298      1     81     96      0.3252          0.6804E+06
   6299      1     81     97      0.3265          0.6804E+06
   6300      1     81     98      0.3273          0.6804E+06
   6301      1     81     99      0.3279          0.6804E+06
   6302      1     81    100      0.3280          0.6804E+06
   6303      1     82      1      0.9850          0.6804E+06
   6304      1     82      2      0.9718          0.6804E+06
   6305      1     82      3      0.9600          0.6804E+06
   6306      1     82      4      0.9491          0.6804E+06
   6307      1     82      5      0.9421          0.6804E+06
   6308      1     82      6      0.9359          0.6804E+06
   6309      1     82      7      0.9258          0.6804E+06
   6310      1     82      8      0.9106          0.6804E+06
   6311      1     82      9      0.8921          0.6804E+06
   6312      1     82     10      0.8655          0.6804E+06
   6313      1     82     11      0.8377          0.6804E+06
   6314      1     82     12      0.8005          0.6804E+06
   6315      1     82     13      0.7551          0.6804E+06
   6316      1     82     14      0.7127          0.6804E+06
   6317      1     82     15      0.6637          0.6804E+06
   6318      1     82     16      0.6205          0.6804E+06
   6319      1     82     17      0.5704          0.6804E+06
   6320      1     82     18      0.5144          0.6804E+06
   6321      1     82     19      0.4626          0.6804E+06
   6322      1     82     20      0.4066          0.6804E+06
   6323      1     82     21      0.3648          0.6804E+06
   6324      1     82     22      0.3372          0.6804E+06
   6325      1     82     23      0.3074          0.6804E+06
   6326      1     82     24      0.2799          0.6804E+06
   6327      1     82     25      0.2462          0.6804E+06
   6328      1     82     26      0.2099          0.6804E+06
   6329      1     82     27      0.1777          0.6804E+06
   6330      1     82     28      0.1418          0.6804E+06
   6331      1     82     29      0.1090          0.6804E+06
   6332      1     82     30      0.9295E-01      0.6804E+06
   6333      1     82     31      0.8270E-01      0.6804E+06
   6334      1     82     32      0.7687E-01      0.6804E+06
   6335      1     82     33      0.7207E-01      0.6804E+06
   6336      1     82     34      0.6935E-01      0.6804E+06
   6337      1     82     35      0.6826E-01      0.6804E+06
   6338      1     82     36      0.6823E-01      0.6804E+06
   6339      1     82     37      0.6906E-01      0.6804E+06
   6340      1     82     38      0.6936E-01      0.6804E+06
   6341      1     82     39      0.7038E-01      0.6804E+06
   6342      1     82     40      0.7195E-01      0.6804E+06
   6343      1     82     41      0.7384E-01      0.6804E+06
   6344      1     82     42      0.7322E-01      0.6804E+06
   6345      1     82     43      0.7371E-01      0.6804E+06
   6346      1     82     44      0.7529E-01      0.6804E+06
   6347      1     82     45      0.7636E-01      0.6804E+06
   6348      1     82     46      0.7753E-01      0.6804E+06
   6349      1     82     47      0.7820E-01      0.6804E+06
   6350      1     82     48      0.7750E-01      0.6804E+06
   6351      1     82     49      0.7578E-01      0.6804E+06
   6352      1     82     50      0.7534E-01      0.6804E+06
   6353      1     82     51      0.7593E-01      0.6804E+06
   6354      1     82     52      0.7831E-01      0.6804E+06
   6355      1     82     53      0.8291E-01      0.6804E+06
   6356      1     82     54      0.9131E-01      0.6804E+06
   6357      1     82     55      0.9968E-01      0.6804E+06
   6358      1     82     56      0.1089          0.6804E+06
   6359      1     82     57      0.1216          0.6804E+06
   6360      1     82     58      0.1348          0.6804E+06
   6361      1     82     59      0.1470          0.6804E+06
   6362      1     82     60      0.1603          0.6804E+06
   6363      1     82     61      0.1704          0.6804E+06
   6364      1     82     62      0.1810          0.6804E+06
   6365      1     82     63      0.1926          0.6804E+06
   6366      1     82     64      0.2028          0.6804E+06
   6367      1     82     65      0.2148          0.6804E+06
   6368      1     82     66      0.2283          0.6804E+06
   6369      1     82     67      0.2402          0.6804E+06
   6370      1     82     68      0.2534          0.6804E+06
   6371      1     82     69      0.2645          0.6804E+06
   6372      1     82     70      0.2771          0.6804E+06
   6373      1     82     71      0.2900          0.6804E+06
   6374      1     82     72      0.3005          0.6804E+06
   6375      1     82     73      0.3111          0.6804E+06
   6376      1     82     74      0.3200          0.6804E+06
   6377      1     82     75      0.3267          0.6804E+06
   6378      1     82     91      0.3166          0.6804E+06
   6379      1     82     92      0.3193          0.6804E+06
   6380      1     82     93      0.3217          0.6804E+06
   6381      1     82     94      0.3244          0.6804E+06
   6382      1     82     95      0.3270          0.6804E+06
   6383      1     82     96      0.3290          0.6804E+06
   6384      1     82     97      0.3307          0.6804E+06
   6385      1     82     98      0.3315          0.6804E+06
   6386      1     82     99      0.3317          0.6804E+06
   6387      1     82    100      0.3309          0.6804E+06
   6388      1     83      1      0.9840          0.6804E+06
   6389      1     83      2      0.9704          0.6804E+06
   6390      1     83      3      0.9581          0.6804E+06
   6391      1     83      4      0.9471          0.6804E+06
   6392      1     83      5      0.9411          0.6804E+06
   6393      1     83      6      0.9360          0.6804E+06
   6394      1     83      7      0.9273          0.6804E+06
   6395      1     83      8      0.9141          0.6804E+06
   6396      1     83      9      0.8983          0.6804E+06
   6397      1     83     10      0.8753          0.6804E+06
   6398      1     83     11      0.8507          0.6804E+06
   6399      1     83     12      0.8168          0.6804E+06
   6400      1     83     13      0.7746          0.6804E+06
   6401      1     83     14      0.7343          0.6804E+06
   6402      1     83     15      0.6870          0.6804E+06
   6403      1     83     16      0.6451          0.6804E+06
   6404      1     83     17      0.5973          0.6804E+06
   6405      1     83     18      0.5485          0.6804E+06
   6406      1     83     19      0.5057          0.6804E+06
   6407      1     83     20      0.4602          0.6804E+06
   6408      1     83     21      0.4227          0.6804E+06
   6409      1     83     22      0.3923          0.6804E+06
   6410      1     83     23      0.3560          0.6804E+06
   6411      1     83     24      0.3226          0.6804E+06
   6412      1     83     25      0.2831          0.6804E+06
   6413      1     83     26      0.2420          0.6804E+06
   6414      1     83     27      0.2066          0.6804E+06
   6415      1     83     28      0.1686          0.6804E+06
   6416      1     83     29      0.1354          0.6804E+06
   6417      1     83     30      0.1159          0.6804E+06
   6418      1     83     31      0.1014          0.6804E+06
   6419      1     83     32      0.9273E-01      0.6804E+06
   6420      1     83     33      0.8520E-01      0.6804E+06
   6421      1     83     34      0.7963E-01      0.6804E+06
   6422      1     83     35      0.7584E-01      0.6804E+06
   6423      1     83     36      0.7254E-01      0.6804E+06
   6424      1     83     37      0.7060E-01      0.6804E+06
   6425      1     83     38      0.7009E-01      0.6804E+06
   6426      1     83     39      0.7160E-01      0.6804E+06
   6427      1     83     40      0.7453E-01      0.6804E+06
   6428      1     83     41      0.7913E-01      0.6804E+06
   6429      1     83     42      0.8310E-01      0.6804E+06
   6430      1     83     43      0.8644E-01      0.6804E+06
   6431      1     83     44      0.8984E-01      0.6804E+06
   6432      1     83     45      0.9203E-01      0.6804E+06
   6433      1     83     46      0.9308E-01      0.6804E+06
   6434      1     83     47      0.9360E-01      0.6804E+06
   6435      1     83     48      0.9308E-01      0.6804E+06
   6436      1     83     49      0.9166E-01      0.6804E+06
   6437      1     83     50      0.9102E-01      0.6804E+06
   6438      1     83     51      0.9196E-01      0.6804E+06
   6439      1     83     52      0.9631E-01      0.6804E+06
   6440      1     83     53      0.1034          0.6804E+06
   6441      1     83     54      0.1127          0.6804E+06
   6442      1     83     55      0.1222          0.6804E+06
   6443      1     83     56      0.1318          0.6804E+06
   6444      1     83     57      0.1448          0.6804E+06
   6445      1     83     58      0.1583          0.6804E+06
   6446      1     83     59      0.1710          0.6804E+06
   6447      1     83     60      0.1849          0.6804E+06
   6448      1     83     61      0.1956          0.6804E+06
   6449      1     83     62      0.2064          0.6804E+06
   6450      1     83     63      0.2176          0.6804E+06
   6451      1     83     64      0.2264          0.6804E+06
   6452      1     83     65      0.2358          0.6804E+06
   6453      1     83     66      0.2462          0.6804E+06
   6454      1     83     67      0.2563          0.6804E+06
   6455      1     83     68      0.2671          0.6804E+06
   6456      1     83     69      0.2763          0.6804E+06
   6457      1     83     70      0.2870          0.6804E+06
   6458      1     83     71      0.2986          0.6804E+06
   6459      1     83     72      0.3077          0.6804E+06
   6460      1     83     73      0.3169          0.6804E+06
   6461      1     83     74      0.3249          0.6804E+06
   6462      1     83     75      0.3310          0.6804E+06
   6463      1     83     76      0.3361          0.6804E+06
   6464      1     83     77      0.3381          0.6804E+06
   6465      1     83     93      0.3245          0.6804E+06
   6466      1     83     94      0.3272          0.6804E+06
   6467      1     83     95      0.3299          0.6804E+06
   6468      1     83     96      0.3322          0.6804E+06
   6469      1     83     97      0.3344          0.6804E+06
   6470      1     83     98      0.3353          0.6804E+06
   6471      1     83     99      0.3350          0.6804E+06
   6472      1     83    100      0.3336          0.6804E+06
   6473      1     84      1      0.9842          0.6804E+06
   6474      1     84      2      0.9714          0.6804E+06
   6475      1     84      3      0.9601          0.6804E+06
   6476      1     84      4      0.9499          0.6804E+06
   6477      1     84      5      0.9436          0.6804E+06
   6478      1     84      6      0.9385          0.6804E+06
   6479      1     84      7      0.9306          0.6804E+06
   6480      1     84      8      0.9193          0.6804E+06
   6481      1     84      9      0.9060          0.6804E+06
   6482      1     84     10      0.8864          0.6804E+06
   6483      1     84     11      0.8648          0.6804E+06
   6484      1     84     12      0.8339          0.6804E+06
   6485      1     84     13      0.7947          0.6804E+06
   6486      1     84     14      0.7563          0.6804E+06
   6487      1     84     15      0.7101          0.6804E+06
   6488      1     84     16      0.6693          0.6804E+06
   6489      1     84     17      0.6246          0.6804E+06
   6490      1     84     18      0.5839          0.6804E+06
   6491      1     84     19      0.5514          0.6804E+06
   6492      1     84     20      0.5184          0.6804E+06
   6493      1     84     21      0.4889          0.6804E+06
   6494      1     84     22      0.4576          0.6804E+06
   6495      1     84     23      0.4144          0.6804E+06
   6496      1     84     24      0.3732          0.6804E+06
   6497      1     84     25      0.3265          0.6804E+06
   6498      1     84     26      0.2805          0.6804E+06
   6499      1     84     27      0.2423          0.6804E+06
   6500      1     84     28      0.2028          0.6804E+06
   6501      1     84     29      0.1690          0.6804E+06
   6502      1     84     30      0.1462          0.6804E+06
   6503      1     84     31      0.1270          0.6804E+06
   6504      1     84     32      0.1144          0.6804E+06
   6505      1     84     33      0.1032          0.6804E+06
   6506      1     84     34      0.9457E-01      0.6804E+06
   6507      1     84     35      0.8780E-01      0.6804E+06
   6508      1     84     36      0.8105E-01      0.6804E+06
   6509      1     84     37      0.7706E-01      0.6804E+06
   6510      1     84     38      0.7524E-01      0.6804E+06
   6511      1     84     39      0.7590E-01      0.6804E+06
   6512      1     84     40      0.7921E-01      0.6804E+06
   6513      1     84     41      0.8587E-01      0.6804E+06
   6514      1     84     42      0.9323E-01      0.6804E+06
   6515      1     84     43      0.9840E-01      0.6804E+06
   6516      1     84     44      0.1035          0.6804E+06
   6517      1     84     45      0.1076          0.6804E+06
   6518      1     84     46      0.1095          0.6804E+06
   6519      1     84     47      0.1103          0.6804E+06
   6520      1     84     48      0.1097          0.6804E+06
   6521      1     84     49      0.1079          0.6804E+06
   6522      1     84     50      0.1068          0.6804E+06
   6523      1     84     51      0.1084          0.6804E+06
   6524      1     84     52      0.1140          0.6804E+06
   6525      1     84     53      0.1223          0.6804E+06
   6526      1     84     54      0.1333          0.6804E+06
   6527      1     84     55      0.1446          0.6804E+06
   6528      1     84     56      0.1556          0.6804E+06
   6529      1     84     57      0.1696          0.6804E+06
   6530      1     84     58      0.1837          0.6804E+06
   6531      1     84     59      0.1967          0.6804E+06
   6532      1     84     60      0.2114          0.6804E+06
   6533      1     84     61      0.2228          0.6804E+06
   6534      1     84     62      0.2339          0.6804E+06
   6535      1     84     63      0.2447          0.6804E+06
   6536      1     84     64      0.2522          0.6804E+06
   6537      1     84     65      0.2589          0.6804E+06
   6538      1     84     66      0.2654          0.6804E+06
   6539      1     84     67      0.2731          0.6804E+06
   6540      1     84     68      0.2817          0.6804E+06
   6541      1     84     69      0.2889          0.6804E+06
   6542      1     84     70      0.2972          0.6804E+06
   6543      1     84     71      0.3072          0.6804E+06
   6544      1     84     72      0.3147          0.6804E+06
   6545      1     84     73      0.3223          0.6804E+06
   6546      1     84     74      0.3292          0.6804E+06
   6547      1     84     75      0.3346          0.6804E+06
   6548      1     84     76      0.3388          0.6804E+06
   6549      1     84     77      0.3398          0.6804E+06
   6550      1     84     78      0.3385          0.6804E+06
   6551      1     84     79      0.3366          0.6804E+06
   6552      1     84     80      0.3348          0.6804E+06
   6553      1     84     94      0.3300          0.6804E+06
   6554      1     84     95      0.3329          0.6804E+06
   6555      1     84     96      0.3355          0.6804E+06
   6556      1     84     97      0.3383          0.6804E+06
   6557      1     84     98      0.3393          0.6804E+06
   6558      1     84     99      0.3385          0.6804E+06
   6559      1     84    100      0.3364          0.6804E+06
   6560      1     85      1      0.9851          0.6804E+06
   6561      1     85      2      0.9739          0.6804E+06
   6562      1     85      3      0.9643          0.6804E+06
   6563      1     85      4      0.9552          0.6804E+06
   6564      1     85      5      0.9484          0.6804E+06
   6565      1     85      6      0.9428          0.6804E+06
   6566      1     85      7      0.9352          0.6804E+06
   6567      1     85      8      0.9253          0.6804E+06
   6568      1     85      9      0.9141          0.6804E+06
   6569      1     85     10      0.8975          0.6804E+06
   6570      1     85     11      0.8790          0.6804E+06
   6571      1     85     12      0.8511          0.6804E+06
   6572      1     85     13      0.8140          0.6804E+06
   6573      1     85     14      0.7764          0.6804E+06
   6574      1     85     15      0.7303          0.6804E+06
   6575      1     85     16      0.6897          0.6804E+06
   6576      1     85     17      0.6478          0.6804E+06
   6577      1     85     18      0.6139          0.6804E+06
   6578      1     85     19      0.5904          0.6804E+06
   6579      1     85     20      0.5688          0.6804E+06
   6580      1     85     21      0.5502          0.6804E+06
   6581      1     85     22      0.5192          0.6804E+06
   6582      1     85     23      0.4683          0.6804E+06
   6583      1     85     24      0.4203          0.6804E+06
   6584      1     85     25      0.3680          0.6804E+06
   6585      1     85     26      0.3183          0.6804E+06
   6586      1     85     27      0.2781          0.6804E+06
   6587      1     85     28      0.2371          0.6804E+06
   6588      1     85     29      0.2016          0.6804E+06
   6589      1     85     30      0.1764          0.6804E+06
   6590      1     85     31      0.1540          0.6804E+06
   6591      1     85     32      0.1384          0.6804E+06
   6592      1     85     33      0.1238          0.6804E+06
   6593      1     85     34      0.1125          0.6804E+06
   6594      1     85     35      0.1035          0.6804E+06
   6595      1     85     36      0.9425E-01      0.6804E+06
   6596      1     85     37      0.8752E-01      0.6804E+06
   6597      1     85     38      0.8307E-01      0.6804E+06
   6598      1     85     39      0.8269E-01      0.6804E+06
   6599      1     85     40      0.8671E-01      0.6804E+06
   6600      1     85     41      0.9372E-01      0.6804E+06
   6601      1     85     42      0.1019          0.6804E+06
   6602      1     85     43      0.1097          0.6804E+06
   6603      1     85     44      0.1181          0.6804E+06
   6604      1     85     45      0.1238          0.6804E+06
   6605      1     85     46      0.1266          0.6804E+06
   6606      1     85     47      0.1277          0.6804E+06
   6607      1     85     48      0.1268          0.6804E+06
   6608      1     85     49      0.1242          0.6804E+06
   6609      1     85     50      0.1220          0.6804E+06
   6610      1     85     51      0.1240          0.6804E+06
   6611      1     85     52      0.1306          0.6804E+06
   6612      1     85     53      0.1402          0.6804E+06
   6613      1     85     54      0.1527          0.6804E+06
   6614      1     85     55      0.1658          0.6804E+06
   6615      1     85     56      0.1781          0.6804E+06
   6616      1     85     57      0.1930          0.6804E+06
   6617      1     85     58      0.2078          0.6804E+06
   6618      1     85     59      0.2212          0.6804E+06
   6619      1     85     60      0.2367          0.6804E+06
   6620      1     85     61      0.2491          0.6804E+06
   6621      1     85     62      0.2610          0.6804E+06
   6622      1     85     63      0.2708          0.6804E+06
   6623      1     85     64      0.2763          0.6804E+06
   6624      1     85     65      0.2798          0.6804E+06
   6625      1     85     66      0.2834          0.6804E+06
   6626      1     85     67      0.2877          0.6804E+06
   6627      1     85     68      0.2941          0.6804E+06
   6628      1     85     69      0.3002          0.6804E+06
   6629      1     85     70      0.3069          0.6804E+06
   6630      1     85     71      0.3145          0.6804E+06
   6631      1     85     72      0.3201          0.6804E+06
   6632      1     85     73      0.3260          0.6804E+06
   6633      1     85     74      0.3313          0.6804E+06
   6634      1     85     75      0.3356          0.6804E+06
   6635      1     85     76      0.3386          0.6804E+06
   6636      1     85     77      0.3392          0.6804E+06
   6637      1     85     78      0.3377          0.6804E+06
   6638      1     85     79      0.3360          0.6804E+06
   6639      1     85     80      0.3344          0.6804E+06
   6640      1     85     81      0.3324          0.6804E+06
   6641      1     85     82      0.3301          0.6804E+06
   6642      1     85     95      0.3351          0.6804E+06
   6643      1     85     96      0.3376          0.6804E+06
   6644      1     85     97      0.3401          0.6804E+06
   6645      1     85     98      0.3411          0.6804E+06
   6646      1     85     99      0.3404          0.6804E+06
   6647      1     85    100      0.3384          0.6804E+06
   6648      1     86      1      0.9855          0.6804E+06
   6649      1     86      2      0.9757          0.6804E+06
   6650      1     86      3      0.9674          0.6804E+06
   6651      1     86      4      0.9592          0.6804E+06
   6652      1     86      5      0.9524          0.6804E+06
   6653      1     86      6      0.9466          0.6804E+06
   6654      1     86      7      0.9393          0.6804E+06
   6655      1     86      8      0.9304          0.6804E+06
   6656      1     86      9      0.9207          0.6804E+06
   6657      1     86     10      0.9070          0.6804E+06
   6658      1     86     11      0.8916          0.6804E+06
   6659      1     86     12      0.8672          0.6804E+06
   6660      1     86     13      0.8310          0.6804E+06
   6661      1     86     14      0.7931          0.6804E+06
   6662      1     86     15      0.7462          0.6804E+06
   6663      1     86     16      0.7049          0.6804E+06
   6664      1     86     17      0.6641          0.6804E+06
   6665      1     86     18      0.6349          0.6804E+06
   6666      1     86     19      0.6180          0.6804E+06
   6667      1     86     20      0.6034          0.6804E+06
   6668      1     86     21      0.5916          0.6804E+06
   6669      1     86     22      0.5612          0.6804E+06
   6670      1     86     23      0.5063          0.6804E+06
   6671      1     86     24      0.4556          0.6804E+06
   6672      1     86     25      0.4009          0.6804E+06
   6673      1     86     26      0.3494          0.6804E+06
   6674      1     86     27      0.3078          0.6804E+06
   6675      1     86     28      0.2656          0.6804E+06
   6676      1     86     29      0.2287          0.6804E+06
   6677      1     86     30      0.2021          0.6804E+06
   6678      1     86     31      0.1776          0.6804E+06
   6679      1     86     32      0.1602          0.6804E+06
   6680      1     86     33      0.1437          0.6804E+06
   6681      1     86     34      0.1306          0.6804E+06
   6682      1     86     35      0.1205          0.6804E+06
   6683      1     86     36      0.1101          0.6804E+06
   6684      1     86     37      0.1013          0.6804E+06
   6685      1     86     38      0.9466E-01      0.6804E+06
   6686      1     86     39      0.9319E-01      0.6804E+06
   6687      1     86     40      0.9788E-01      0.6804E+06
   6688      1     86     41      0.1051          0.6804E+06
   6689      1     86     42      0.1140          0.6804E+06
   6690      1     86     43      0.1231          0.6804E+06
   6691      1     86     44      0.1331          0.6804E+06
   6692      1     86     45      0.1390          0.6804E+06
   6693      1     86     46      0.1419          0.6804E+06
   6694      1     86     47      0.1431          0.6804E+06
   6695      1     86     48      0.1420          0.6804E+06
   6696      1     86     49      0.1384          0.6804E+06
   6697      1     86     50      0.1353          0.6804E+06
   6698      1     86     51      0.1373          0.6804E+06
   6699      1     86     52      0.1452          0.6804E+06
   6700      1     86     53      0.1563          0.6804E+06
   6701      1     86     54      0.1700          0.6804E+06
   6702      1     86     55      0.1844          0.6804E+06
   6703      1     86     56      0.1973          0.6804E+06
   6704      1     86     57      0.2125          0.6804E+06
   6705      1     86     58      0.2274          0.6804E+06
   6706      1     86     59      0.2409          0.6804E+06
   6707      1     86     60      0.2565          0.6804E+06
   6708      1     86     61      0.2695          0.6804E+06
   6709      1     86     62      0.2835          0.6804E+06
   6710      1     86     63      0.2917          0.6804E+06
   6711      1     86     64      0.2942          0.6804E+06
   6712      1     86     65      0.2942          0.6804E+06
   6713      1     86     66      0.2955          0.6804E+06
   6714      1     86     67      0.2987          0.6804E+06
   6715      1     86     68      0.3035          0.6804E+06
   6716      1     86     69      0.3083          0.6804E+06
   6717      1     86     70      0.3140          0.6804E+06
   6718      1     86     71      0.3193          0.6804E+06
   6719      1     86     72      0.3234          0.6804E+06
   6720      1     86     73      0.3277          0.6804E+06
   6721      1     86     74      0.3315          0.6804E+06
   6722      1     86     75      0.3342          0.6804E+06
   6723      1     86     76      0.3360          0.6804E+06
   6724      1     86     77      0.3364          0.6804E+06
   6725      1     86     78      0.3358          0.6804E+06
   6726      1     86     79      0.3346          0.6804E+06
   6727      1     86     80      0.3333          0.6804E+06
   6728      1     86     81      0.3318          0.6804E+06
   6729      1     86     82      0.3300          0.6804E+06
   6730      1     86     83      0.3282          0.6804E+06
   6731      1     86     84      0.3265          0.6804E+06
   6732      1     87      1      0.9846          0.6804E+06
   6733      1     87      2      0.9765          0.6804E+06
   6734      1     87      3      0.9696          0.6804E+06
   6735      1     87      4      0.9623          0.6804E+06
   6736      1     87      5      0.9557          0.6804E+06
   6737      1     87      6      0.9500          0.6804E+06
   6738      1     87      7      0.9431          0.6804E+06
   6739      1     87      8      0.9350          0.6804E+06
   6740      1     87      9      0.9266          0.6804E+06
   6741      1     87     10      0.9151          0.6804E+06
   6742      1     87     11      0.9029          0.6804E+06
   6743      1     87     12      0.8834          0.6804E+06
   6744      1     87     13      0.8484          0.6804E+06
   6745      1     87     14      0.8102          0.6804E+06
   6746      1     87     15      0.7640          0.6804E+06
   6747      1     87     16      0.7228          0.6804E+06
   6748      1     87     17      0.6824          0.6804E+06
   6749      1     87     18      0.6561          0.6804E+06
   6750      1     87     19      0.6434          0.6804E+06
   6751      1     87     20      0.6288          0.6804E+06
   6752      1     87     21      0.6099          0.6804E+06
   6753      1     87     22      0.5807          0.6804E+06
   6754      1     87     23      0.5333          0.6804E+06
   6755      1     87     24      0.4860          0.6804E+06
   6756      1     87     25      0.4325          0.6804E+06
   6757      1     87     26      0.3809          0.6804E+06
   6758      1     87     27      0.3388          0.6804E+06
   6759      1     87     28      0.2957          0.6804E+06
   6760      1     87     29      0.2578          0.6804E+06
   6761      1     87     30      0.2300          0.6804E+06
   6762      1     87     31      0.2041          0.6804E+06
   6763      1     87     32      0.1854          0.6804E+06
   6764      1     87     33      0.1678          0.6804E+06
   6765      1     87     34      0.1536          0.6804E+06
   6766      1     87     35      0.1427          0.6804E+06
   6767      1     87     36      0.1319          0.6804E+06
   6768      1     87     37      0.1232          0.6804E+06
   6769      1     87     38      0.1179          0.6804E+06
   6770      1     87     39      0.1161          0.6804E+06
   6771      1     87     40      0.1185          0.6804E+06
   6772      1     87     41      0.1230          0.6804E+06
   6773      1     87     42      0.1327          0.6804E+06
   6774      1     87     43      0.1428          0.6804E+06
   6775      1     87     44      0.1536          0.6804E+06
   6776      1     87     45      0.1606          0.6804E+06
   6777      1     87     46      0.1636          0.6804E+06
   6778      1     87     47      0.1645          0.6804E+06
   6779      1     87     48      0.1623          0.6804E+06
   6780      1     87     49      0.1561          0.6804E+06
   6781      1     87     50      0.1515          0.6804E+06
   6782      1     87     51      0.1535          0.6804E+06
   6783      1     87     52      0.1623          0.6804E+06
   6784      1     87     53      0.1751          0.6804E+06
   6785      1     87     54      0.1906          0.6804E+06
   6786      1     87     55      0.2061          0.6804E+06
   6787      1     87     56      0.2192          0.6804E+06
   6788      1     87     57      0.2333          0.6804E+06
   6789      1     87     58      0.2476          0.6804E+06
   6790      1     87     59      0.2603          0.6804E+06
   6791      1     87     60      0.2750          0.6804E+06
   6792      1     87     61      0.2880          0.6804E+06
   6793      1     87     62      0.3038          0.6804E+06
   6794      1     87     63      0.3098          0.6804E+06
   6795      1     87     64      0.3096          0.6804E+06
   6796      1     87     65      0.3069          0.6804E+06
   6797      1     87     66      0.3062          0.6804E+06
   6798      1     87     67      0.3083          0.6804E+06
   6799      1     87     68      0.3114          0.6804E+06
   6800      1     87     69      0.3149          0.6804E+06
   6801      1     87     70      0.3202          0.6804E+06
   6802      1     87     71      0.3235          0.6804E+06
   6803      1     87     72      0.3261          0.6804E+06
   6804      1     87     73      0.3287          0.6804E+06
   6805      1     87     74      0.3304          0.6804E+06
   6806      1     87     75      0.3316          0.6804E+06
   6807      1     87     76      0.3324          0.6804E+06
   6808      1     87     77      0.3326          0.6804E+06
   6809      1     87     78      0.3327          0.6804E+06
   6810      1     87     79      0.3323          0.6804E+06
   6811      1     87     80      0.3316          0.6804E+06
   6812      1     87     81      0.3306          0.6804E+06
   6813      1     87     82      0.3294          0.6804E+06
   6814      1     87     83      0.3280          0.6804E+06
   6815      1     87     84      0.3268          0.6804E+06
   6816      1     87     85      0.3259          0.6804E+06
   6817      1     87     86      0.3252          0.6804E+06
   6818      1     88      1      0.9821          0.6804E+06
   6819      1     88      2      0.9755          0.6804E+06
   6820      1     88      3      0.9698          0.6804E+06
   6821      1     88      4      0.9636          0.6804E+06
   6822      1     88      5      0.9574          0.6804E+06
   6823      1     88      6      0.9519          0.6804E+06
   6824      1     88      7      0.9453          0.6804E+06
   6825      1     88      8      0.9377          0.6804E+06
   6826      1     88      9      0.9298          0.6804E+06
   6827      1     88     10      0.9193          0.6804E+06
   6828      1     88     11      0.9080          0.6804E+06
   6829      1     88     12      0.8898          0.6804E+06
   6830      1     88     13      0.8582          0.6804E+06
   6831      1     88     14      0.8239          0.6804E+06
   6832      1     88     15      0.7824          0.6804E+06
   6833      1     88     16      0.7458          0.6804E+06
   6834      1     88     17      0.7097          0.6804E+06
   6835      1     88     18      0.6842          0.6804E+06
   6836      1     88     19      0.6688          0.6804E+06
   6837      1     88     20      0.6502          0.6804E+06
   6838      1     88     21      0.6260          0.6804E+06
   6839      1     88     22      0.5967          0.6804E+06
   6840      1     88     23      0.5534          0.6804E+06
   6841      1     88     24      0.5099          0.6804E+06
   6842      1     88     25      0.4586          0.6804E+06
   6843      1     88     26      0.4080          0.6804E+06
   6844      1     88     27      0.3659          0.6804E+06
   6845      1     88     28      0.3223          0.6804E+06
   6846      1     88     29      0.2838          0.6804E+06
   6847      1     88     30      0.2554          0.6804E+06
   6848      1     88     31      0.2291          0.6804E+06
   6849      1     88     32      0.2103          0.6804E+06
   6850      1     88     33      0.1926          0.6804E+06
   6851      1     88     34      0.1782          0.6804E+06
   6852      1     88     35      0.1674          0.6804E+06
   6853      1     88     36      0.1573          0.6804E+06
   6854      1     88     37      0.1509          0.6804E+06
   6855      1     88     38      0.1495          0.6804E+06
   6856      1     88     39      0.1487          0.6804E+06
   6857      1     88     40      0.1479          0.6804E+06
   6858      1     88     41      0.1499          0.6804E+06
   6859      1     88     42      0.1588          0.6804E+06
   6860      1     88     43      0.1684          0.6804E+06
   6861      1     88     44      0.1789          0.6804E+06
   6862      1     88     45      0.1866          0.6804E+06
   6863      1     88     46      0.1898          0.6804E+06
   6864      1     88     47      0.1899          0.6804E+06
   6865      1     88     48      0.1867          0.6804E+06
   6866      1     88     49      0.1810          0.6804E+06
   6867      1     88     50      0.1754          0.6804E+06
   6868      1     88     51      0.1767          0.6804E+06
   6869      1     88     52      0.1854          0.6804E+06
   6870      1     88     53      0.1985          0.6804E+06
   6871      1     88     54      0.2139          0.6804E+06
   6872      1     88     55      0.2281          0.6804E+06
   6873      1     88     56      0.2402          0.6804E+06
   6874      1     88     57      0.2541          0.6804E+06
   6875      1     88     58      0.2660          0.6804E+06
   6876      1     88     59      0.2763          0.6804E+06
   6877      1     88     60      0.2887          0.6804E+06
   6878      1     88     61      0.2998          0.6804E+06
   6879      1     88     62      0.3118          0.6804E+06
   6880      1     88     63      0.3173          0.6804E+06
   6881      1     88     64      0.3178          0.6804E+06
   6882      1     88     65      0.3156          0.6804E+06
   6883      1     88     66      0.3146          0.6804E+06
   6884      1     88     67      0.3147          0.6804E+06
   6885      1     88     68      0.3162          0.6804E+06
   6886      1     88     69      0.3191          0.6804E+06
   6887      1     88     70      0.3238          0.6804E+06
   6888      1     88     71      0.3264          0.6804E+06
   6889      1     88     72      0.3279          0.6804E+06
   6890      1     88     73      0.3289          0.6804E+06
   6891      1     88     74      0.3288          0.6804E+06
   6892      1     88     75      0.3285          0.6804E+06
   6893      1     88     76      0.3284          0.6804E+06
   6894      1     88     77      0.3286          0.6804E+06
   6895      1     88     78      0.3293          0.6804E+06
   6896      1     88     79      0.3297          0.6804E+06
   6897      1     88     80      0.3296          0.6804E+06
   6898      1     88     81      0.3292          0.6804E+06
   6899      1     88     82      0.3285          0.6804E+06
   6900      1     88     83      0.3275          0.6804E+06
   6901      1     88     84      0.3266          0.6804E+06
   6902      1     88     85      0.3260          0.6804E+06
   6903      1     88     86      0.3256          0.6804E+06
   6904      1     88     87      0.3256          0.6804E+06
   6905      1     89      1      0.9788          0.6804E+06
   6906      1     89      2      0.9734          0.6804E+06
   6907      1     89      3      0.9686          0.6804E+06
   6908      1     89      4      0.9631          0.6804E+06
   6909      1     89      5      0.9575          0.6804E+06
   6910      1     89      6      0.9523          0.6804E+06
   6911      1     89      7      0.9457          0.6804E+06
   6912      1     89      8      0.9381          0.6804E+06
   6913      1     89      9      0.9303          0.6804E+06
   6914      1     89     10      0.9195          0.6804E+06
   6915      1     89     11      0.9077          0.6804E+06
   6916      1     89     12      0.8887          0.6804E+06
   6917      1     89     13      0.8618          0.6804E+06
   6918      1     89     14      0.8333          0.6804E+06
   6919      1     89     15      0.7980          0.6804E+06
   6920      1     89     16      0.7671          0.6804E+06
   6921      1     89     17      0.7356          0.6804E+06
   6922      1     89     18      0.7101          0.6804E+06
   6923      1     89     19      0.6913          0.6804E+06
   6924      1     89     20      0.6689          0.6804E+06
   6925      1     89     21      0.6418          0.6804E+06
   6926      1     89     22      0.6119          0.6804E+06
   6927      1     89     23      0.5701          0.6804E+06
   6928      1     89     24      0.5286          0.6804E+06
   6929      1     89     25      0.4788          0.6804E+06
   6930      1     89     26      0.4288          0.6804E+06
   6931      1     89     27      0.3868          0.6804E+06
   6932      1     89     28      0.3426          0.6804E+06
   6933      1     89     29      0.3037          0.6804E+06
   6934      1     89     30      0.2753          0.6804E+06
   6935      1     89     31      0.2495          0.6804E+06
   6936      1     89     32      0.2314          0.6804E+06
   6937      1     89     33      0.2139          0.6804E+06
   6938      1     89     34      0.2005          0.6804E+06
   6939      1     89     35      0.1911          0.6804E+06
   6940      1     89     36      0.1828          0.6804E+06
   6941      1     89     37      0.1782          0.6804E+06
   6942      1     89     38      0.1789          0.6804E+06
   6943      1     89     39      0.1800          0.6804E+06
   6944      1     89     40      0.1795          0.6804E+06
   6945      1     89     41      0.1821          0.6804E+06
   6946      1     89     42      0.1886          0.6804E+06
   6947      1     89     43      0.1959          0.6804E+06
   6948      1     89     44      0.2050          0.6804E+06
   6949      1     89     45      0.2122          0.6804E+06
   6950      1     89     46      0.2153          0.6804E+06
   6951      1     89     47      0.2153          0.6804E+06
   6952      1     89     48      0.2123          0.6804E+06
   6953      1     89     49      0.2086          0.6804E+06
   6954      1     89     50      0.2041          0.6804E+06
   6955      1     89     51      0.2053          0.6804E+06
   6956      1     89     52      0.2126          0.6804E+06
   6957      1     89     53      0.2234          0.6804E+06
   6958      1     89     54      0.2364          0.6804E+06
   6959      1     89     55      0.2481          0.6804E+06
   6960      1     89     56      0.2582          0.6804E+06
   6961      1     89     57      0.2700          0.6804E+06
   6962      1     89     58      0.2796          0.6804E+06
   6963      1     89     59      0.2877          0.6804E+06
   6964      1     89     60      0.2975          0.6804E+06
   6965      1     89     61      0.3061          0.6804E+06
   6966      1     89     62      0.3147          0.6804E+06
   6967      1     89     63      0.3195          0.6804E+06
   6968      1     89     64      0.3208          0.6804E+06
   6969      1     89     65      0.3200          0.6804E+06
   6970      1     89     66      0.3195          0.6804E+06
   6971      1     89     67      0.3194          0.6804E+06
   6972      1     89     68      0.3205          0.6804E+06
   6973      1     89     69      0.3225          0.6804E+06
   6974      1     89     70      0.3248          0.6804E+06
   6975      1     89     71      0.3277          0.6804E+06
   6976      1     89     72      0.3289          0.6804E+06
   6977      1     89     73      0.3285          0.6804E+06
   6978      1     89     74      0.3274          0.6804E+06
   6979      1     89     75      0.3258          0.6804E+06
   6980      1     89     76      0.3249          0.6804E+06
   6981      1     89     77      0.3253          0.6804E+06
   6982      1     89     78      0.3267          0.6804E+06
   6983      1     89     79      0.3277          0.6804E+06
   6984      1     89     80      0.3281          0.6804E+06
   6985      1     89     81      0.3280          0.6804E+06
   6986      1     89     82      0.3276          0.6804E+06
   6987      1     89     83      0.3269          0.6804E+06
   6988      1     89     84      0.3262          0.6804E+06
   6989      1     89     85      0.3258          0.6804E+06
   6990      1     89     86      0.3255          0.6804E+06
   6991      1     89     87      0.3256          0.6804E+06
   6992      1     89     88      0.3261          0.6804E+06
   6993      1     89     89      0.3270          0.6804E+06
   6994      1     90      1      0.9739          0.6804E+06
   6995      1     90      2      0.9699          0.6804E+06
   6996      1     90      3      0.9659          0.6804E+06
   6997      1     90      4      0.9611          0.6804E+06
   6998      1     90      5      0.9560          0.6804E+06
   6999      1     90      6      0.9509          0.6804E+06
   7000      1     90      7      0.9442          0.6804E+06
   7001      1     90      8      0.9366          0.6804E+06
   7002      1     90      9      0.9287          0.6804E+06
   7003      1     90     10      0.9177          0.6804E+06
   7004      1     90     11      0.9057          0.6804E+06
   7005      1     90     12      0.8879          0.6804E+06
   7006      1     90     13      0.8653          0.6804E+06
   7007      1     90     14      0.8423          0.6804E+06
   7008      1     90     15      0.8140          0.6804E+06
   7009      1     90     16      0.7890          0.6804E+06
   7010      1     90     17      0.7619          0.6804E+06
   7011      1     90     18      0.7371          0.6804E+06
   7012      1     90     19      0.7163          0.6804E+06
   7013      1     90     20      0.6912          0.6804E+06
   7014      1     90     21      0.6620          0.6804E+06
   7015      1     90     22      0.6315          0.6804E+06
   7016      1     90     23      0.5898          0.6804E+06
   7017      1     90     24      0.5492          0.6804E+06
   7018      1     90     25      0.5003          0.6804E+06
   7019      1     90     26      0.4506          0.6804E+06
   7020      1     90     27      0.4083          0.6804E+06
   7021      1     90     28      0.3635          0.6804E+06
   7022      1     90     29      0.3235          0.6804E+06
   7023      1     90     30      0.2953          0.6804E+06
   7024      1     90     31      0.2710          0.6804E+06
   7025      1     90     32      0.2540          0.6804E+06
   7026      1     90     33      0.2382          0.6804E+06
   7027      1     90     34      0.2267          0.6804E+06
   7028      1     90     35      0.2191          0.6804E+06
   7029      1     90     36      0.2127          0.6804E+06
   7030      1     90     37      0.2097          0.6804E+06
   7031      1     90     38      0.2106          0.6804E+06
   7032      1     90     39      0.2137          0.6804E+06
   7033      1     90     40      0.2179          0.6804E+06
   7034      1     90     41      0.2216          0.6804E+06
   7035      1     90     42      0.2263          0.6804E+06
   7036      1     90     43      0.2315          0.6804E+06
   7037      1     90     44      0.2384          0.6804E+06
   7038      1     90     45      0.2435          0.6804E+06
   7039      1     90     46      0.2461          0.6804E+06
   7040      1     90     47      0.2474          0.6804E+06
   7041      1     90     48      0.2468          0.6804E+06
   7042      1     90     49      0.2453          0.6804E+06
   7043      1     90     50      0.2441          0.6804E+06
   7044      1     90     51      0.2455          0.6804E+06
   7045      1     90     52      0.2496          0.6804E+06
   7046      1     90     53      0.2556          0.6804E+06
   7047      1     90     54      0.2638          0.6804E+06
   7048      1     90     55      0.2718          0.6804E+06
   7049      1     90     56      0.2789          0.6804E+06
   7050      1     90     57      0.2874          0.6804E+06
   7051      1     90     58      0.2943          0.6804E+06
   7052      1     90     59      0.2996          0.6804E+06
   7053      1     90     60      0.3058          0.6804E+06
   7054      1     90     61      0.3115          0.6804E+06
   7055      1     90     62      0.3165          0.6804E+06
   7056      1     90     63      0.3203          0.6804E+06
   7057      1     90     64      0.3223          0.6804E+06
   7058      1     90     65      0.3230          0.6804E+06
   7059      1     90     66      0.3234          0.6804E+06
   7060      1     90     67      0.3240          0.6804E+06
   7061      1     90     68      0.3250          0.6804E+06
   7062      1     90     69      0.3260          0.6804E+06
   7063      1     90     70      0.3269          0.6804E+06
   7064      1     90     71      0.3282          0.6804E+06
   7065      1     90     72      0.3284          0.6804E+06
   7066      1     90     73      0.3275          0.6804E+06
   7067      1     90     74      0.3264          0.6804E+06
   7068      1     90     75      0.3236          0.6804E+06
   7069      1     90     76      0.3221          0.6804E+06
   7070      1     90     77      0.3227          0.6804E+06
   7071      1     90     78      0.3248          0.6804E+06
   7072      1     90     79      0.3262          0.6804E+06
   7073      1     90     80      0.3268          0.6804E+06
   7074      1     90     81      0.3270          0.6804E+06
   7075      1     90     82      0.3267          0.6804E+06
   7076      1     90     83      0.3262          0.6804E+06
   7077      1     90     84      0.3256          0.6804E+06
   7078      1     90     85      0.3252          0.6804E+06
   7079      1     90     86      0.3250          0.6804E+06
   7080      1     90     87      0.3252          0.6804E+06
   7081      1     90     88      0.3258          0.6804E+06
   7082      1     90     89      0.3269          0.6804E+06
   7083      1     90     90      0.3285          0.6804E+06
   7084      1     91      1      0.9689          0.6804E+06
   7085      1     91      2      0.9659          0.6804E+06
   7086      1     91      3      0.9626          0.6804E+06
   7087      1     91      4      0.9584          0.6804E+06
   7088      1     91      5      0.9534          0.6804E+06
   7089      1     91      6      0.9484          0.6804E+06
   7090      1     91      7      0.9417          0.6804E+06
   7091      1     91      8      0.9340          0.6804E+06
   7092      1     91      9      0.9260          0.6804E+06
   7093      1     91     10      0.9152          0.6804E+06
   7094      1     91     11      0.9036          0.6804E+06
   7095      1     91     12      0.8874          0.6804E+06
   7096      1     91     13      0.8679          0.6804E+06
   7097      1     91     14      0.8487          0.6804E+06
   7098      1     91     15      0.8256          0.6804E+06
   7099      1     91     16      0.8052          0.6804E+06
   7100      1     91     17      0.7816          0.6804E+06
   7101      1     91     18      0.7580          0.6804E+06
   7102      1     91     19      0.7369          0.6804E+06
   7103      1     91     20      0.7109          0.6804E+06
   7104      1     91     21      0.6811          0.6804E+06
   7105      1     91     22      0.6502          0.6804E+06
   7106      1     91     23      0.6081          0.6804E+06
   7107      1     91     24      0.5674          0.6804E+06
   7108      1     91     25      0.5184          0.6804E+06
   7109      1     91     26      0.4685          0.6804E+06
   7110      1     91     27      0.4259          0.6804E+06
   7111      1     91     28      0.3806          0.6804E+06
   7112      1     91     29      0.3400          0.6804E+06
   7113      1     91     30      0.3121          0.6804E+06
   7114      1     91     31      0.2892          0.6804E+06
   7115      1     91     32      0.2736          0.6804E+06
   7116      1     91     33      0.2599          0.6804E+06
   7117      1     91     34      0.2504          0.6804E+06
   7118      1     91     35      0.2444          0.6804E+06
   7119      1     91     36      0.2399          0.6804E+06
   7120      1     91     37      0.2383          0.6804E+06
   7121      1     91     38      0.2396          0.6804E+06
   7122      1     91     39      0.2443          0.6804E+06
   7123      1     91     40      0.2520          0.6804E+06
   7124      1     91     41      0.2567          0.6804E+06
   7125      1     91     42      0.2604          0.6804E+06
   7126      1     91     43      0.2640          0.6804E+06
   7127      1     91     44      0.2685          0.6804E+06
   7128      1     91     45      0.2719          0.6804E+06
   7129      1     91     46      0.2739          0.6804E+06
   7130      1     91     47      0.2766          0.6804E+06
   7131      1     91     48      0.2786          0.6804E+06
   7132      1     91     49      0.2793          0.6804E+06
   7133      1     91     50      0.2799          0.6804E+06
   7134      1     91     51      0.2810          0.6804E+06
   7135      1     91     52      0.2824          0.6804E+06
   7136      1     91     53      0.2847          0.6804E+06
   7137      1     91     54      0.2888          0.6804E+06
   7138      1     91     55      0.2931          0.6804E+06
   7139      1     91     56      0.2974          0.6804E+06
   7140      1     91     57      0.3030          0.6804E+06
   7141      1     91     58      0.3070          0.6804E+06
   7142      1     91     59      0.3095          0.6804E+06
   7143      1     91     60      0.3125          0.6804E+06
   7144      1     91     61      0.3158          0.6804E+06
   7145      1     91     62      0.3181          0.6804E+06
   7146      1     91     63      0.3209          0.6804E+06
   7147      1     91     64      0.3233          0.6804E+06
   7148      1     91     65      0.3249          0.6804E+06
   7149      1     91     66      0.3261          0.6804E+06
   7150      1     91     67      0.3273          0.6804E+06
   7151      1     91     68      0.3282          0.6804E+06
   7152      1     91     69      0.3286          0.6804E+06
   7153      1     91     70      0.3291          0.6804E+06
   7154      1     91     71      0.3293          0.6804E+06
   7155      1     91     72      0.3290          0.6804E+06
   7156      1     91     73      0.3280          0.6804E+06
   7157      1     91     74      0.3266          0.6804E+06
   7158      1     91     75      0.3243          0.6804E+06
   7159      1     91     76      0.3230          0.6804E+06
   7160      1     91     77      0.3235          0.6804E+06
   7161      1     91     78      0.3249          0.6804E+06
   7162      1     91     79      0.3259          0.6804E+06
   7163      1     91     80      0.3264          0.6804E+06
   7164      1     91     81      0.3265          0.6804E+06
   7165      1     91     82      0.3261          0.6804E+06
   7166      1     91     83      0.3256          0.6804E+06
   7167      1     91     84      0.3249          0.6804E+06
   7168      1     91     85      0.3245          0.6804E+06
   7169      1     91     86      0.3243          0.6804E+06
   7170      1     91     87      0.3246          0.6804E+06
   7171      1     91     88      0.3253          0.6804E+06
   7172      1     91     89      0.3266          0.6804E+06
   7173      1     91     90      0.3282          0.6804E+06
   7174      1     91     91      0.3299          0.6804E+06
   7175      1     91     92      0.3321          0.6804E+06
   7176      1     92      1      0.9627          0.6804E+06
   7177      1     92      2      0.9605          0.6804E+06
   7178      1     92      3      0.9579          0.6804E+06
   7179      1     92      4      0.9542          0.6804E+06
   7180      1     92      5      0.9495          0.6804E+06
   7181      1     92      6      0.9444          0.6804E+06
   7182      1     92      7      0.9378          0.6804E+06
   7183      1     92      8      0.9299          0.6804E+06
   7184      1     92      9      0.9220          0.6804E+06
   7185      1     92     10      0.9115          0.6804E+06
   7186      1     92     11      0.9007          0.6804E+06
   7187      1     92     12      0.8862          0.6804E+06
   7188      1     92     13      0.8697          0.6804E+06
   7189      1     92     14      0.8541          0.6804E+06
   7190      1     92     15      0.8356          0.6804E+06
   7191      1     92     16      0.8195          0.6804E+06
   7192      1     92     17      0.7996          0.6804E+06
   7193      1     92     18      0.7781          0.6804E+06
   7194      1     92     19      0.7577          0.6804E+06
   7195      1     92     20      0.7324          0.6804E+06
   7196      1     92     21      0.7030          0.6804E+06
   7197      1     92     22      0.6722          0.6804E+06
   7198      1     92     23      0.6297          0.6804E+06
   7199      1     92     24      0.5885          0.6804E+06
   7200      1     92     25      0.5389          0.6804E+06
   7201      1     92     26      0.4881          0.6804E+06
   7202      1     92     27      0.4449          0.6804E+06
   7203      1     92     28      0.3993          0.6804E+06
   7204      1     92     29      0.3600          0.6804E+06
   7205      1     92     30      0.3327          0.6804E+06
   7206      1     92     31      0.3104          0.6804E+06
   7207      1     92     32      0.2964          0.6804E+06
   7208      1     92     33      0.2851          0.6804E+06
   7209      1     92     34      0.2779          0.6804E+06
   7210      1     92     35      0.2738          0.6804E+06
   7211      1     92     36      0.2714          0.6804E+06
   7212      1     92     37      0.2714          0.6804E+06
   7213      1     92     38      0.2739          0.6804E+06
   7214      1     92     39      0.2796          0.6804E+06
   7215      1     92     40      0.2885          0.6804E+06
   7216      1     92     41      0.2952          0.6804E+06
   7217      1     92     42      0.2989          0.6804E+06
   7218      1     92     43      0.3008          0.6804E+06
   7219      1     92     44      0.3028          0.6804E+06
   7220      1     92     45      0.3046          0.6804E+06
   7221      1     92     46      0.3067          0.6804E+06
   7222      1     92     47      0.3110          0.6804E+06
   7223      1     92     48      0.3152          0.6804E+06
   7224      1     92     49      0.3181          0.6804E+06
   7225      1     92     50      0.3204          0.6804E+06
   7226      1     92     51      0.3210          0.6804E+06
   7227      1     92     52      0.3190          0.6804E+06
   7228      1     92     53      0.3173          0.6804E+06
   7229      1     92     54      0.3168          0.6804E+06
   7230      1     92     55      0.3168          0.6804E+06
   7231      1     92     56      0.3176          0.6804E+06
   7232      1     92     57      0.3197          0.6804E+06
   7233      1     92     58      0.3200          0.6804E+06
   7234      1     92     59      0.3200          0.6804E+06
   7235      1     92     60      0.3205          0.6804E+06
   7236      1     92     61      0.3210          0.6804E+06
   7237      1     92     62      0.3209          0.6804E+06
   7238      1     92     63      0.3228          0.6804E+06
   7239      1     92     64      0.3253          0.6804E+06
   7240      1     92     65      0.3272          0.6804E+06
   7241      1     92     66      0.3291          0.6804E+06
   7242      1     92     67      0.3303          0.6804E+06
   7243      1     92     68      0.3310          0.6804E+06
   7244      1     92     69      0.3313          0.6804E+06
   7245      1     92     70      0.3317          0.6804E+06
   7246      1     92     71      0.3314          0.6804E+06
   7247      1     92     72      0.3308          0.6804E+06
   7248      1     92     73      0.3298          0.6804E+06
   7249      1     92     74      0.3284          0.6804E+06
   7250      1     92     75      0.3269          0.6804E+06
   7251      1     92     76      0.3260          0.6804E+06
   7252      1     92     77      0.3260          0.6804E+06
   7253      1     92     78      0.3264          0.6804E+06
   7254      1     92     79      0.3267          0.6804E+06
   7255      1     92     80      0.3267          0.6804E+06
   7256      1     92     81      0.3264          0.6804E+06
   7257      1     92     82      0.3257          0.6804E+06
   7258      1     92     83      0.3250          0.6804E+06
   7259      1     92     84      0.3241          0.6804E+06
   7260      1     92     85      0.3235          0.6804E+06
   7261      1     92     86      0.3231          0.6804E+06
   7262      1     92     87      0.3235          0.6804E+06
   7263      1     92     88      0.3244          0.6804E+06
   7264      1     92     89      0.3259          0.6804E+06
   7265      1     92     90      0.3278          0.6804E+06
   7266      1     92     91      0.3296          0.6804E+06
   7267      1     92     92      0.3319          0.6804E+06
   7268      1     92     93      0.3339          0.6804E+06
   7269      1     93      1      0.9559          0.6804E+06
   7270      1     93      2      0.9544          0.6804E+06
   7271      1     93      3      0.9525          0.6804E+06
   7272      1     93      4      0.9491          0.6804E+06
   7273      1     93      5      0.9445          0.6804E+06
   7274      1     93      6      0.9395          0.6804E+06
   7275      1     93      7      0.9328          0.6804E+06
   7276      1     93      8      0.9249          0.6804E+06
   7277      1     93      9      0.9172          0.6804E+06
   7278      1     93     10      0.9072          0.6804E+06
   7279      1     93     11      0.8971          0.6804E+06
   7280      1     93     12      0.8842          0.6804E+06
   7281      1     93     13      0.8700          0.6804E+06
   7282      1     93     14      0.8569          0.6804E+06
   7283      1     93     15      0.8417          0.6804E+06
   7284      1     93     16      0.8285          0.6804E+06
   7285      1     93     17      0.8120          0.6804E+06
   7286      1     93     18      0.7934          0.6804E+06
   7287      1     93     19      0.7755          0.6804E+06
   7288      1     93     20      0.7525          0.6804E+06
   7289      1     93     21      0.7246          0.6804E+06
   7290      1     93     22      0.6946          0.6804E+06
   7291      1     93     23      0.6521          0.6804E+06
   7292      1     93     24      0.6101          0.6804E+06
   7293      1     93     25      0.5593          0.6804E+06
   7294      1     93     26      0.5072          0.6804E+06
   7295      1     93     27      0.4626          0.6804E+06
   7296      1     93     28      0.4159          0.6804E+06
   7297      1     93     29      0.3769          0.6804E+06
   7298      1     93     30      0.3506          0.6804E+06
   7299      1     93     31      0.3302          0.6804E+06
   7300      1     93     32      0.3185          0.6804E+06
   7301      1     93     33      0.3097          0.6804E+06
   7302      1     93     34      0.3048          0.6804E+06
   7303      1     93     35      0.3025          0.6804E+06
   7304      1     93     36      0.3019          0.6804E+06
   7305      1     93     37      0.3036          0.6804E+06
   7306      1     93     38      0.3071          0.6804E+06
   7307      1     93     39      0.3130          0.6804E+06
   7308      1     93     40      0.3204          0.6804E+06
   7309      1     93     41      0.3299          0.6804E+06
   7310      1     93     42      0.3346          0.6804E+06
   7311      1     93     43      0.3353          0.6804E+06
   7312      1     93     44      0.3355          0.6804E+06
   7313      1     93     45      0.3362          0.6804E+06
   7314      1     93     46      0.3385          0.6804E+06
   7315      1     93     47      0.3434          0.6804E+06
   7316      1     93     48      0.3483          0.6804E+06
   7317      1     93     49      0.3538          0.6804E+06
   7318      1     93     50      0.3589          0.6804E+06
   7319      1     93     51      0.3592          0.6804E+06
   7320      1     93     52      0.3522          0.6804E+06
   7321      1     93     53      0.3466          0.6804E+06
   7322      1     93     54      0.3418          0.6804E+06
   7323      1     93     55      0.3380          0.6804E+06
   7324      1     93     56      0.3356          0.6804E+06
   7325      1     93     57      0.3334          0.6804E+06
   7326      1     93     58      0.3311          0.6804E+06
   7327      1     93     59      0.3297          0.6804E+06
   7328      1     93     60      0.3289          0.6804E+06
   7329      1     93     61      0.3280          0.6804E+06
   7330      1     93     62      0.3271          0.6804E+06
   7331      1     93     63      0.3278          0.6804E+06
   7332      1     93     64      0.3291          0.6804E+06
   7333      1     93     65      0.3306          0.6804E+06
   7334      1     93     66      0.3319          0.6804E+06
   7335      1     93     67      0.3330          0.6804E+06
   7336      1     93     68      0.3337          0.6804E+06
   7337      1     93     69      0.3340          0.6804E+06
   7338      1     93     70      0.3342          0.6804E+06
   7339      1     93     71      0.3339          0.6804E+06
   7340      1     93     72      0.3333          0.6804E+06
   7341      1     93     73      0.3325          0.6804E+06
   7342      1     93     74      0.3315          0.6804E+06
   7343      1     93     75      0.3306          0.6804E+06
   7344      1     93     76      0.3297          0.6804E+06
   7345      1     93     77      0.3292          0.6804E+06
   7346      1     93     78      0.3287          0.6804E+06
   7347      1     93     79      0.3281          0.6804E+06
   7348      1     93     80      0.3275          0.6804E+06
   7349      1     93     81      0.3267          0.6804E+06
   7350      1     93     82      0.3256          0.6804E+06
   7351      1     93     83      0.3246          0.6804E+06
   7352      1     93     84      0.3234          0.6804E+06
   7353      1     93     85      0.3224          0.6804E+06
   7354      1     93     86      0.3218          0.6804E+06
   7355      1     93     87      0.3221          0.6804E+06
   7356      1     93     88      0.3232          0.6804E+06
   7357      1     93     89      0.3250          0.6804E+06
   7358      1     93     90      0.3272          0.6804E+06
   7359      1     93     91      0.3292          0.6804E+06
   7360      1     93     92      0.3316          0.6804E+06
   7361      1     93     93      0.3337          0.6804E+06
   7362      1     93     94      0.3360          0.6804E+06
   7363      1     94      1      0.9497          0.6804E+06
   7364      1     94      2      0.9487          0.6804E+06
   7365      1     94      3      0.9471          0.6804E+06
   7366      1     94      4      0.9441          0.6804E+06
   7367      1     94      5      0.9394          0.6804E+06
   7368      1     94      6      0.9342          0.6804E+06
   7369      1     94      7      0.9275          0.6804E+06
   7370      1     94      8      0.9198          0.6804E+06
   7371      1     94      9      0.9122          0.6804E+06
   7372      1     94     10      0.9027          0.6804E+06
   7373      1     94     11      0.8932          0.6804E+06
   7374      1     94     12      0.8813          0.6804E+06
   7375      1     94     13      0.8686          0.6804E+06
   7376      1     94     14      0.8571          0.6804E+06
   7377      1     94     15      0.8437          0.6804E+06
   7378      1     94     16      0.8321          0.6804E+06
   7379      1     94     17      0.8181          0.6804E+06
   7380      1     94     18      0.8030          0.6804E+06
   7381      1     94     19      0.7884          0.6804E+06
   7382      1     94     20      0.7688          0.6804E+06
   7383      1     94     21      0.7437          0.6804E+06
   7384      1     94     22      0.7152          0.6804E+06
   7385      1     94     23      0.6724          0.6804E+06
   7386      1     94     24      0.6295          0.6804E+06
   7387      1     94     25      0.5774          0.6804E+06
   7388      1     94     26      0.5238          0.6804E+06
   7389      1     94     27      0.4776          0.6804E+06
   7390      1     94     28      0.4286          0.6804E+06
   7391      1     94     29      0.3889          0.6804E+06
   7392      1     94     30      0.3637          0.6804E+06
   7393      1     94     31      0.3467          0.6804E+06
   7394      1     94     32      0.3378          0.6804E+06
   7395      1     94     33      0.3315          0.6804E+06
   7396      1     94     34      0.3285          0.6804E+06
   7397      1     94     35      0.3276          0.6804E+06
   7398      1     94     36      0.3281          0.6804E+06
   7399      1     94     37      0.3308          0.6804E+06
   7400      1     94     38      0.3351          0.6804E+06
   7401      1     94     39      0.3412          0.6804E+06
   7402      1     94     40      0.3483          0.6804E+06
   7403      1     94     41      0.3568          0.6804E+06
   7404      1     94     42      0.3610          0.6804E+06
   7405      1     94     43      0.3617          0.6804E+06
   7406      1     94     44      0.3616          0.6804E+06
   7407      1     94     45      0.3620          0.6804E+06
   7408      1     94     46      0.3637          0.6804E+06
   7409      1     94     47      0.3677          0.6804E+06
   7410      1     94     48      0.3726          0.6804E+06
   7411      1     94     49      0.3801          0.6804E+06
   7412      1     94     50      0.3870          0.6804E+06
   7413      1     94     51      0.3869          0.6804E+06
   7414      1     94     52      0.3765          0.6804E+06
   7415      1     94     53      0.3684          0.6804E+06
   7416      1     94     54      0.3607          0.6804E+06
   7417      1     94     55      0.3541          0.6804E+06
   7418      1     94     56      0.3492          0.6804E+06
   7419      1     94     57      0.3444          0.6804E+06
   7420      1     94     58      0.3404          0.6804E+06
   7421      1     94     59      0.3378          0.6804E+06
   7422      1     94     60      0.3359          0.6804E+06
   7423      1     94     61      0.3342          0.6804E+06
   7424      1     94     62      0.3328          0.6804E+06
   7425      1     94     63      0.3326          0.6804E+06
   7426      1     94     64      0.3331          0.6804E+06
   7427      1     94     65      0.3337          0.6804E+06
   7428      1     94     66      0.3346          0.6804E+06
   7429      1     94     67      0.3354          0.6804E+06
   7430      1     94     68      0.3359          0.6804E+06
   7431      1     94     69      0.3361          0.6804E+06
   7432      1     94     70      0.3363          0.6804E+06
   7433      1     94     71      0.3361          0.6804E+06
   7434      1     94     72      0.3357          0.6804E+06
   7435      1     94     73      0.3351          0.6804E+06
   7436      1     94     74      0.3345          0.6804E+06
   7437      1     94     75      0.3338          0.6804E+06
   7438      1     94     76      0.3330          0.6804E+06
   7439      1     94     77      0.3322          0.6804E+06
   7440      1     94     78      0.3310          0.6804E+06
   7441      1     94     79      0.3297          0.6804E+06
   7442      1     94     80      0.3286          0.6804E+06
   7443      1     94     81      0.3272          0.6804E+06
   7444      1     94     82      0.3258          0.6804E+06
   7445      1     94     83      0.3244          0.6804E+06
   7446      1     94     84      0.3229          0.6804E+06
   7447      1     94     85      0.3217          0.6804E+06
   7448      1     94     86      0.3206          0.6804E+06
   7449      1     94     87      0.3210          0.6804E+06
   7450      1     94     88      0.3223          0.6804E+06
   7451      1     94     89      0.3244          0.6804E+06
   7452      1     94     90      0.3268          0.6804E+06
   7453      1     94     91      0.3289          0.6804E+06
   7454      1     94     92      0.3314          0.6804E+06
   7455      1     94     93      0.3335          0.6804E+06
   7456      1     94     94      0.3359          0.6804E+06
   7457      1     94     95      0.3382          0.6804E+06
   7458      1     95      1      0.9422          0.6804E+06
   7459      1     95      2      0.9414          0.6804E+06
   7460      1     95      3      0.9400          0.6804E+06
   7461      1     95      4      0.9371          0.6804E+06
   7462      1     95      5      0.9325          0.6804E+06
   7463      1     95      6      0.9274          0.6804E+06
   7464      1     95      7      0.9208          0.6804E+06
   7465      1     95      8      0.9132          0.6804E+06
   7466      1     95      9      0.9059          0.6804E+06
   7467      1     95     10      0.8967          0.6804E+06
   7468      1     95     11      0.8878          0.6804E+06
   7469      1     95     12      0.8768          0.6804E+06
   7470      1     95     13      0.8652          0.6804E+06
   7471      1     95     14      0.8549          0.6804E+06
   7472      1     95     15      0.8430          0.6804E+06
   7473      1     95     16      0.8330          0.6804E+06
   7474      1     95     17      0.8218          0.6804E+06
   7475      1     95     18      0.8105          0.6804E+06
   7476      1     95     19      0.8000          0.6804E+06
   7477      1     95     20      0.7858          0.6804E+06
   7478      1     95     21      0.7657          0.6804E+06
   7479      1     95     22      0.7398          0.6804E+06
   7480      1     95     23      0.6957          0.6804E+06
   7481      1     95     24      0.6515          0.6804E+06
   7482      1     95     25      0.5984          0.6804E+06
   7483      1     95     26      0.5435          0.6804E+06
   7484      1     95     27      0.4956          0.6804E+06
   7485      1     95     28      0.4432          0.6804E+06
   7486      1     95     29      0.4017          0.6804E+06
   7487      1     95     30      0.3778          0.6804E+06
   7488      1     95     31      0.3667          0.6804E+06
   7489      1     95     32      0.3613          0.6804E+06
   7490      1     95     33      0.3575          0.6804E+06
   7491      1     95     34      0.3560          0.6804E+06
   7492      1     95     35      0.3560          0.6804E+06
   7493      1     95     36      0.3573          0.6804E+06
   7494      1     95     37      0.3605          0.6804E+06
   7495      1     95     38      0.3650          0.6804E+06
   7496      1     95     39      0.3712          0.6804E+06
   7497      1     95     40      0.3777          0.6804E+06
   7498      1     95     41      0.3847          0.6804E+06
   7499      1     95     42      0.3880          0.6804E+06
   7500      1     95     43      0.3881          0.6804E+06
   7501      1     95     44      0.3875          0.6804E+06
   7502      1     95     45      0.3875          0.6804E+06
   7503      1     95     46      0.3888          0.6804E+06
   7504      1     95     47      0.3922          0.6804E+06
   7505      1     95     48      0.3963          0.6804E+06
   7506      1     95     49      0.4018          0.6804E+06
   7507      1     95     50      0.4055          0.6804E+06
   7508      1     95     51      0.4043          0.6804E+06
   7509      1     95     52      0.3957          0.6804E+06
   7510      1     95     53      0.3872          0.6804E+06
   7511      1     95     54      0.3780          0.6804E+06
   7512      1     95     55      0.3691          0.6804E+06
   7513      1     95     56      0.3620          0.6804E+06
   7514      1     95     57      0.3559          0.6804E+06
   7515      1     95     58      0.3505          0.6804E+06
   7516      1     95     59      0.3467          0.6804E+06
   7517      1     95     60      0.3433          0.6804E+06
   7518      1     95     61      0.3408          0.6804E+06
   7519      1     95     62      0.3386          0.6804E+06
   7520      1     95     63      0.3376          0.6804E+06
   7521      1     95     64      0.3375          0.6804E+06
   7522      1     95     65      0.3375          0.6804E+06
   7523      1     95     66      0.3378          0.6804E+06
   7524      1     95     67      0.3380          0.6804E+06
   7525      1     95     68      0.3383          0.6804E+06
   7526      1     95     69      0.3384          0.6804E+06
   7527      1     95     70      0.3385          0.6804E+06
   7528      1     95     71      0.3384          0.6804E+06
   7529      1     95     72      0.3382          0.6804E+06
   7530      1     95     73      0.3380          0.6804E+06
   7531      1     95     74      0.3378          0.6804E+06
   7532      1     95     75      0.3375          0.6804E+06
   7533      1     95     76      0.3367          0.6804E+06
   7534      1     95     77      0.3355          0.6804E+06
   7535      1     95     78      0.3336          0.6804E+06
   7536      1     95     79      0.3317          0.6804E+06
   7537      1     95     80      0.3300          0.6804E+06
   7538      1     95     81      0.3280          0.6804E+06
   7539      1     95     82      0.3262          0.6804E+06
   7540      1     95     83      0.3246          0.6804E+06
   7541      1     95     84      0.3228          0.6804E+06
   7542      1     95     85      0.3213          0.6804E+06
   7543      1     95     86      0.3198          0.6804E+06
   7544      1     95     87      0.3202          0.6804E+06
   7545      1     95     88      0.3217          0.6804E+06
   7546      1     95     89      0.3240          0.6804E+06
   7547      1     95     90      0.3264          0.6804E+06
   7548      1     95     91      0.3286          0.6804E+06
   7549      1     95     92      0.3311          0.6804E+06
   7550      1     95     93      0.3333          0.6804E+06
   7551      1     95     94      0.3357          0.6804E+06
   7552      1     95     95      0.3381          0.6804E+06
   7553      1     96      1      0.9344          0.6804E+06
   7554      1     96      2      0.9335          0.6804E+06
   7555      1     96      3      0.9320          0.6804E+06
   7556      1     96      4      0.9291          0.6804E+06
   7557      1     96      5      0.9246          0.6804E+06
   7558      1     96      6      0.9197          0.6804E+06
   7559      1     96      7      0.9134          0.6804E+06
   7560      1     96      8      0.9060          0.6804E+06
   7561      1     96      9      0.8989          0.6804E+06
   7562      1     96     10      0.8900          0.6804E+06
   7563      1     96     11      0.8815          0.6804E+06
   7564      1     96     12      0.8710          0.6804E+06
   7565      1     96     13      0.8602          0.6804E+06
   7566      1     96     14      0.8505          0.6804E+06
   7567      1     96     15      0.8396          0.6804E+06
   7568      1     96     16      0.8308          0.6804E+06
   7569      1     96     17      0.8220          0.6804E+06
   7570      1     96     18      0.8142          0.6804E+06
   7571      1     96     19      0.8072          0.6804E+06
   7572      1     96     20      0.7978          0.6804E+06
   7573      1     96     21      0.7834          0.6804E+06
   7574      1     96     22      0.7614          0.6804E+06
   7575      1     96     23      0.7161          0.6804E+06
   7576      1     96     24      0.6718          0.6804E+06
   7577      1     96     25      0.6194          0.6804E+06
   7578      1     96     26      0.5651          0.6804E+06
   7579      1     96     27      0.5171          0.6804E+06
   7580      1     96     28      0.4630          0.6804E+06
   7581      1     96     29      0.4201          0.6804E+06
   7582      1     96     30      0.3973          0.6804E+06
   7583      1     96     31      0.3915          0.6804E+06
   7584      1     96     32      0.3882          0.6804E+06
   7585      1     96     33      0.3854          0.6804E+06
   7586      1     96     34      0.3842          0.6804E+06
   7587      1     96     35      0.3842          0.6804E+06
   7588      1     96     36      0.3854          0.6804E+06
   7589      1     96     37      0.3884          0.6804E+06
   7590      1     96     38      0.3926          0.6804E+06
   7591      1     96     39      0.3985          0.6804E+06
   7592      1     96     40      0.4046          0.6804E+06
   7593      1     96     41      0.4106          0.6804E+06
   7594      1     96     42      0.4127          0.6804E+06
   7595      1     96     43      0.4116          0.6804E+06
   7596      1     96     44      0.4096          0.6804E+06
   7597      1     96     45      0.4089          0.6804E+06
   7598      1     96     46      0.4094          0.6804E+06
   7599      1     96     47      0.4117          0.6804E+06
   7600      1     96     48      0.4147          0.6804E+06
   7601      1     96     49      0.4182          0.6804E+06
   7602      1     96     50      0.4196          0.6804E+06
   7603      1     96     51      0.4174          0.6804E+06
   7604      1     96     52      0.4093          0.6804E+06
   7605      1     96     53      0.4006          0.6804E+06
   7606      1     96     54      0.3904          0.6804E+06
   7607      1     96     55      0.3803          0.6804E+06
   7608      1     96     56      0.3727          0.6804E+06
   7609      1     96     57      0.3653          0.6804E+06
   7610      1     96     58      0.3591          0.6804E+06
   7611      1     96     59      0.3544          0.6804E+06
   7612      1     96     60      0.3499          0.6804E+06
   7613      1     96     61      0.3467          0.6804E+06
   7614      1     96     62      0.3438          0.6804E+06
   7615      1     96     63      0.3420          0.6804E+06
   7616      1     96     64      0.3413          0.6804E+06
   7617      1     96     65      0.3410          0.6804E+06
   7618      1     96     66      0.3407          0.6804E+06
   7619      1     96     67      0.3405          0.6804E+06
   7620      1     96     68      0.3405          0.6804E+06
   7621      1     96     69      0.3405          0.6804E+06
   7622      1     96     70      0.3405          0.6804E+06
   7623      1     96     71      0.3404          0.6804E+06
   7624      1     96     72      0.3404          0.6804E+06
   7625      1     96     73      0.3404          0.6804E+06
   7626      1     96     74      0.3405          0.6804E+06
   7627      1     96     75      0.3406          0.6804E+06
   7628      1     96     76      0.3399          0.6804E+06
   7629      1     96     77      0.3382          0.6804E+06
   7630      1     96     78      0.3357          0.6804E+06
   7631      1     96     79      0.3333          0.6804E+06
   7632      1     96     80      0.3312          0.6804E+06
   7633      1     96     81      0.3290          0.6804E+06
   7634      1     96     82      0.3268          0.6804E+06
   7635      1     96     83      0.3250          0.6804E+06
   7636      1     96     84      0.3232          0.6804E+06
   7637      1     96     85      0.3217          0.6804E+06
   7638      1     96     86      0.3206          0.6804E+06
   7639      1     96     87      0.3209          0.6804E+06
   7640      1     96     88      0.3220          0.6804E+06
   7641      1     96     89      0.3241          0.6804E+06
   7642      1     96     90      0.3264          0.6804E+06
   7643      1     96     91      0.3285          0.6804E+06
   7644      1     96     92      0.3309          0.6804E+06
   7645      1     96     93      0.3331          0.6804E+06
   7646      1     96     94      0.3355          0.6804E+06
   7647      1     96     95      0.3377          0.6804E+06
   7648      1     96     96      0.3395          0.6804E+06
   7649      1     97      1      0.9274          0.6804E+06
   7650      1     97      2      0.9264          0.6804E+06
   7651      1     97      3      0.9247          0.6804E+06
   7652      1     97      4      0.9217          0.6804E+06
   7653      1     97      5      0.9173          0.6804E+06
   7654      1     97      6      0.9125          0.6804E+06
   7655      1     97      7      0.9063          0.6804E+06
   7656      1     97      8      0.8991          0.6804E+06
   7657      1     97      9      0.8922          0.6804E+06
   7658      1     97     10      0.8835          0.6804E+06
   7659      1     97     11      0.8753          0.6804E+06
   7660      1     97     12      0.8652          0.6804E+06
   7661      1     97     13      0.8549          0.6804E+06
   7662      1     97     14      0.8456          0.6804E+06
   7663      1     97     15      0.8348          0.6804E+06
   7664      1     97     16      0.8267          0.6804E+06
   7665      1     97     17      0.8195          0.6804E+06
   7666      1     97     18      0.8145          0.6804E+06
   7667      1     97     19      0.8098          0.6804E+06
   7668      1     97     20      0.8023          0.6804E+06
   7669      1     97     21      0.7888          0.6804E+06
   7670      1     97     22      0.7680          0.6804E+06
   7671      1     97     23      0.7275          0.6804E+06
   7672      1     97     24      0.6867          0.6804E+06
   7673      1     97     25      0.6374          0.6804E+06
   7674      1     97     26      0.5863          0.6804E+06
   7675      1     97     27      0.5413          0.6804E+06
   7676      1     97     28      0.4923          0.6804E+06
   7677      1     97     29      0.4532          0.6804E+06
   7678      1     97     30      0.4309          0.6804E+06
   7679      1     97     31      0.4213          0.6804E+06
   7680      1     97     32      0.4162          0.6804E+06
   7681      1     97     33      0.4119          0.6804E+06
   7682      1     97     34      0.4096          0.6804E+06
   7683      1     97     35      0.4088          0.6804E+06
   7684      1     97     36      0.4090          0.6804E+06
   7685      1     97     37      0.4113          0.6804E+06
   7686      1     97     38      0.4148          0.6804E+06
   7687      1     97     39      0.4200          0.6804E+06
   7688      1     97     40      0.4256          0.6804E+06
   7689      1     97     41      0.4308          0.6804E+06
   7690      1     97     42      0.4318          0.6804E+06
   7691      1     97     43      0.4293          0.6804E+06
   7692      1     97     44      0.4260          0.6804E+06
   7693      1     97     45      0.4243          0.6804E+06
   7694      1     97     46      0.4239          0.6804E+06
   7695      1     97     47      0.4250          0.6804E+06
   7696      1     97     48      0.4268          0.6804E+06
   7697      1     97     49      0.4292          0.6804E+06
   7698      1     97     50      0.4297          0.6804E+06
   7699      1     97     51      0.4270          0.6804E+06
   7700      1     97     52      0.4181          0.6804E+06
   7701      1     97     53      0.4087          0.6804E+06
   7702      1     97     54      0.3979          0.6804E+06
   7703      1     97     55      0.3877          0.6804E+06
   7704      1     97     56      0.3799          0.6804E+06
   7705      1     97     57      0.3719          0.6804E+06
   7706      1     97     58      0.3652          0.6804E+06
   7707      1     97     59      0.3601          0.6804E+06
   7708      1     97     60      0.3551          0.6804E+06
   7709      1     97     61      0.3513          0.6804E+06
   7710      1     97     62      0.3479          0.6804E+06
   7711      1     97     63      0.3456          0.6804E+06
   7712      1     97     64      0.3444          0.6804E+06
   7713      1     97     65      0.3436          0.6804E+06
   7714      1     97     66      0.3429          0.6804E+06
   7715      1     97     67      0.3424          0.6804E+06
   7716      1     97     68      0.3422          0.6804E+06
   7717      1     97     69      0.3421          0.6804E+06
   7718      1     97     70      0.3420          0.6804E+06
   7719      1     97     71      0.3419          0.6804E+06
   7720      1     97     72      0.3419          0.6804E+06
   7721      1     97     73      0.3420          0.6804E+06
   7722      1     97     74      0.3421          0.6804E+06
   7723      1     97     75      0.3423          0.6804E+06
   7724      1     97     76      0.3417          0.6804E+06
   7725      1     97     77      0.3397          0.6804E+06
   7726      1     97     78      0.3370          0.6804E+06
   7727      1     97     79      0.3343          0.6804E+06
   7728      1     97     80      0.3321          0.6804E+06
   7729      1     97     81      0.3297          0.6804E+06
   7730      1     97     82      0.3274          0.6804E+06
   7731      1     97     83      0.3256          0.6804E+06
   7732      1     97     84      0.3237          0.6804E+06
   7733      1     97     85      0.3224          0.6804E+06
   7734      1     97     86      0.3216          0.6804E+06
   7735      1     97     87      0.3217          0.6804E+06
   7736      1     97     88      0.3226          0.6804E+06
   7737      1     97     89      0.3243          0.6804E+06
   7738      1     97     90      0.3264          0.6804E+06
   7739      1     97     91      0.3284          0.6804E+06
   7740      1     97     92      0.3308          0.6804E+06
   7741      1     97     93      0.3329          0.6804E+06
   7742      1     97     94      0.3352          0.6804E+06
   7743      1     97     95      0.3373          0.6804E+06
   7744      1     97     96      0.3390          0.6804E+06
   7745      1     97     97      0.3406          0.6804E+06
   7746      1     98      1      0.9196          0.6804E+06
   7747      1     98      2      0.9182          0.6804E+06
   7748      1     98      3      0.9162          0.6804E+06
   7749      1     98      4      0.9130          0.6804E+06
   7750      1     98      5      0.9086          0.6804E+06
   7751      1     98      6      0.9039          0.6804E+06
   7752      1     98      7      0.8978          0.6804E+06
   7753      1     98      8      0.8907          0.6804E+06
   7754      1     98      9      0.8839          0.6804E+06
   7755      1     98     10      0.8756          0.6804E+06
   7756      1     98     11      0.8677          0.6804E+06
   7757      1     98     12      0.8580          0.6804E+06
   7758      1     98     13      0.8481          0.6804E+06
   7759      1     98     14      0.8390          0.6804E+06
   7760      1     98     15      0.8284          0.6804E+06
   7761      1     98     16      0.8207          0.6804E+06
   7762      1     98     17      0.8150          0.6804E+06
   7763      1     98     18      0.8129          0.6804E+06
   7764      1     98     19      0.8101          0.6804E+06
   7765      1     98     20      0.8034          0.6804E+06
   7766      1     98     21      0.7901          0.6804E+06
   7767      1     98     22      0.7705          0.6804E+06
   7768      1     98     23      0.7371          0.6804E+06
   7769      1     98     24      0.7017          0.6804E+06
   7770      1     98     25      0.6577          0.6804E+06
   7771      1     98     26      0.6117          0.6804E+06
   7772      1     98     27      0.5718          0.6804E+06
   7773      1     98     28      0.5301          0.6804E+06
   7774      1     98     29      0.4959          0.6804E+06
   7775      1     98     30      0.4741          0.6804E+06
   7776      1     98     31      0.4599          0.6804E+06
   7777      1     98     32      0.4513          0.6804E+06
   7778      1     98     33      0.4436          0.6804E+06
   7779      1     98     34      0.4386          0.6804E+06
   7780      1     98     35      0.4360          0.6804E+06
   7781      1     98     36      0.4344          0.6804E+06
   7782      1     98     37      0.4350          0.6804E+06
   7783      1     98     38      0.4371          0.6804E+06
   7784      1     98     39      0.4408          0.6804E+06
   7785      1     98     40      0.4448          0.6804E+06
   7786      1     98     41      0.4481          0.6804E+06
   7787      1     98     42      0.4480          0.6804E+06
   7788      1     98     43      0.4451          0.6804E+06
   7789      1     98     44      0.4410          0.6804E+06
   7790      1     98     45      0.4379          0.6804E+06
   7791      1     98     46      0.4363          0.6804E+06
   7792      1     98     47      0.4358          0.6804E+06
   7793      1     98     48      0.4363          0.6804E+06
   7794      1     98     49      0.4374          0.6804E+06
   7795      1     98     50      0.4372          0.6804E+06
   7796      1     98     51      0.4339          0.6804E+06
   7797      1     98     52      0.4242          0.6804E+06
   7798      1     98     53      0.4144          0.6804E+06
   7799      1     98     54      0.4036          0.6804E+06
   7800      1     98     55      0.3936          0.6804E+06
   7801      1     98     56      0.3858          0.6804E+06
   7802      1     98     57      0.3776          0.6804E+06
   7803      1     98     58      0.3704          0.6804E+06
   7804      1     98     59      0.3650          0.6804E+06
   7805      1     98     60      0.3596          0.6804E+06
   7806      1     98     61      0.3556          0.6804E+06
   7807      1     98     62      0.3519          0.6804E+06
   7808      1     98     63      0.3491          0.6804E+06
   7809      1     98     64      0.3474          0.6804E+06
   7810      1     98     65      0.3460          0.6804E+06
   7811      1     98     66      0.3449          0.6804E+06
   7812      1     98     67      0.3442          0.6804E+06
   7813      1     98     68      0.3438          0.6804E+06
   7814      1     98     69      0.3437          0.6804E+06
   7815      1     98     70      0.3435          0.6804E+06
   7816      1     98     71      0.3432          0.6804E+06
   7817      1     98     72      0.3431          0.6804E+06
   7818      1     98     73      0.3431          0.6804E+06
   7819      1     98     74      0.3430          0.6804E+06
   7820      1     98     75      0.3428          0.6804E+06
   7821      1     98     76      0.3418          0.6804E+06
   7822      1     98     77      0.3402          0.6804E+06
   7823      1     98     78      0.3377          0.6804E+06
   7824      1     98     79      0.3351          0.6804E+06
   7825      1     98     80      0.3328          0.6804E+06
   7826      1     98     81      0.3303          0.6804E+06
   7827      1     98     82      0.3280          0.6804E+06
   7828      1     98     83      0.3262          0.6804E+06
   7829      1     98     84      0.3244          0.6804E+06
   7830      1     98     85      0.3231          0.6804E+06
   7831      1     98     86      0.3224          0.6804E+06
   7832      1     98     87      0.3225          0.6804E+06
   7833      1     98     88      0.3232          0.6804E+06
   7834      1     98     89      0.3247          0.6804E+06
   7835      1     98     90      0.3266          0.6804E+06
   7836      1     98     91      0.3284          0.6804E+06
   7837      1     98     92      0.3307          0.6804E+06
   7838      1     98     93      0.3327          0.6804E+06
   7839      1     98     94      0.3349          0.6804E+06
   7840      1     98     95      0.3369          0.6804E+06
   7841      1     98     96      0.3385          0.6804E+06
   7842      1     98     97      0.3400          0.6804E+06
   7843      1     98     98      0.3410          0.6804E+06
   7844      1     99      1      0.9128          0.6804E+06
   7845      1     99      2      0.9111          0.6804E+06
   7846      1     99      3      0.9088          0.6804E+06
   7847      1     99      4      0.9054          0.6804E+06
   7848      1     99      5      0.9008          0.6804E+06
   7849      1     99      6      0.8960          0.6804E+06
   7850      1     99      7      0.8900          0.6804E+06
   7851      1     99      8      0.8831          0.6804E+06
   7852      1     99      9      0.8764          0.6804E+06
   7853      1     99     10      0.8683          0.6804E+06
   7854      1     99     11      0.8607          0.6804E+06
   7855      1     99     12      0.8514          0.6804E+06
   7856      1     99     13      0.8419          0.6804E+06
   7857      1     99     14      0.8333          0.6804E+06
   7858      1     99     15      0.8235          0.6804E+06
   7859      1     99     16      0.8166          0.6804E+06
   7860      1     99     17      0.8120          0.6804E+06
   7861      1     99     18      0.8112          0.6804E+06
   7862      1     99     19      0.8095          0.6804E+06
   7863      1     99     20      0.8038          0.6804E+06
   7864      1     99     21      0.7919          0.6804E+06
   7865      1     99     22      0.7744          0.6804E+06
   7866      1     99     23      0.7453          0.6804E+06
   7867      1     99     24      0.7141          0.6804E+06
   7868      1     99     25      0.6750          0.6804E+06
   7869      1     99     26      0.6339          0.6804E+06
   7870      1     99     27      0.5987          0.6804E+06
   7871      1     99     28      0.5627          0.6804E+06
   7872      1     99     29      0.5323          0.6804E+06
   7873      1     99     30      0.5114          0.6804E+06
   7874      1     99     31      0.4943          0.6804E+06
   7875      1     99     32      0.4823          0.6804E+06
   7876      1     99     33      0.4711          0.6804E+06
   7877      1     99     34      0.4631          0.6804E+06
   7878      1     99     35      0.4583          0.6804E+06
   7879      1     99     36      0.4547          0.6804E+06
   7880      1     99     37      0.4535          0.6804E+06
   7881      1     99     38      0.4540          0.6804E+06
   7882      1     99     39      0.4559          0.6804E+06
   7883      1     99     40      0.4581          0.6804E+06
   7884      1     99     41      0.4595          0.6804E+06
   7885      1     99     42      0.4584          0.6804E+06
   7886      1     99     43      0.4552          0.6804E+06
   7887      1     99     44      0.4509          0.6804E+06
   7888      1     99     45      0.4466          0.6804E+06
   7889      1     99     46      0.4436          0.6804E+06
   7890      1     99     47      0.4416          0.6804E+06
   7891      1     99     48      0.4407          0.6804E+06
   7892      1     99     49      0.4399          0.6804E+06
   7893      1     99     50      0.4379          0.6804E+06
   7894      1     99     51      0.4338          0.6804E+06
   7895      1     99     52      0.4252          0.6804E+06
   7896      1     99     53      0.4165          0.6804E+06
   7897      1     99     54      0.4063          0.6804E+06
   7898      1     99     55      0.3966          0.6804E+06
   7899      1     99     56      0.3890          0.6804E+06
   7900      1     99     57      0.3807          0.6804E+06
   7901      1     99     58      0.3735          0.6804E+06
   7902      1     99     59      0.3680          0.6804E+06
   7903      1     99     60      0.3625          0.6804E+06
   7904      1     99     61      0.3583          0.6804E+06
   7905      1     99     62      0.3545          0.6804E+06
   7906      1     99     63      0.3514          0.6804E+06
   7907      1     99     64      0.3494          0.6804E+06
   7908      1     99     65      0.3476          0.6804E+06
   7909      1     99     66      0.3463          0.6804E+06
   7910      1     99     67      0.3455          0.6804E+06
   7911      1     99     68      0.3449          0.6804E+06
   7912      1     99     69      0.3446          0.6804E+06
   7913      1     99     70      0.3443          0.6804E+06
   7914      1     99     71      0.3441          0.6804E+06
   7915      1     99     72      0.3439          0.6804E+06
   7916      1     99     73      0.3437          0.6804E+06
   7917      1     99     74      0.3434          0.6804E+06
   7918      1     99     75      0.3428          0.6804E+06
   7919      1     99     76      0.3417          0.6804E+06
   7920      1     99     77      0.3402          0.6804E+06
   7921      1     99     78      0.3379          0.6804E+06
   7922      1     99     79      0.3354          0.6804E+06
   7923      1     99     80      0.3332          0.6804E+06
   7924      1     99     81      0.3307          0.6804E+06
   7925      1     99     82      0.3284          0.6804E+06
   7926      1     99     83      0.3266          0.6804E+06
   7927      1     99     84      0.3248          0.6804E+06
   7928      1     99     85      0.3236          0.6804E+06
   7929      1     99     86      0.3229          0.6804E+06
   7930      1     99     87      0.3230          0.6804E+06
   7931      1     99     88      0.3236          0.6804E+06
   7932      1     99     89      0.3249          0.6804E+06
   7933      1     99     90      0.3267          0.6804E+06
   7934      1     99     91      0.3285          0.6804E+06
   7935      1     99     92      0.3307          0.6804E+06
   7936      1     99     93      0.3326          0.6804E+06
   7937      1     99     94      0.3347          0.6804E+06
   7938      1     99     95      0.3366          0.6804E+06
   7939      1     99     96      0.3381          0.6804E+06
   7940      1     99     97      0.3395          0.6804E+06
   7941      1     99     98      0.3405          0.6804E+06
   7942      1     99     99      0.3413          0.6804E+06
   7943      1    100      1      0.9051          0.6804E+06
   7944      1    100      2      0.9029          0.6804E+06
   7945      1    100      3      0.9002          0.6804E+06
   7946      1    100      4      0.8965          0.6804E+06
   7947      1    100      5      0.8917          0.6804E+06
   7948      1    100      6      0.8869          0.6804E+06
   7949      1    100      7      0.8809          0.6804E+06
   7950      1    100      8      0.8741          0.6804E+06
   7951      1    100      9      0.8676          0.6804E+06
   7952      1    100     10      0.8597          0.6804E+06
   7953      1    100     11      0.8523          0.6804E+06
   7954      1    100     12      0.8435          0.6804E+06
   7955      1    100     13      0.8347          0.6804E+06
   7956      1    100     14      0.8270          0.6804E+06
   7957      1    100     15      0.8188          0.6804E+06
   7958      1    100     16      0.8135          0.6804E+06
   7959      1    100     17      0.8102          0.6804E+06
   7960      1    100     18      0.8098          0.6804E+06
   7961      1    100     19      0.8091          0.6804E+06
   7962      1    100     20      0.8053          0.6804E+06
   7963      1    100     21      0.7961          0.6804E+06
   7964      1    100     22      0.7815          0.6804E+06
   7965      1    100     23      0.7559          0.6804E+06
   7966      1    100     24      0.7282          0.6804E+06
   7967      1    100     25      0.6935          0.6804E+06
   7968      1    100     26      0.6575          0.6804E+06
   7969      1    100     27      0.6270          0.6804E+06
   7970      1    100     28      0.5962          0.6804E+06
   7971      1    100     29      0.5696          0.6804E+06
   7972      1    100     30      0.5503          0.6804E+06
   7973      1    100     31      0.5315          0.6804E+06
   7974      1    100     32      0.5162          0.6804E+06
   7975      1    100     33      0.5008          0.6804E+06
   7976      1    100     34      0.4891          0.6804E+06
   7977      1    100     35      0.4816          0.6804E+06
   7978      1    100     36      0.4754          0.6804E+06
   7979      1    100     37      0.4719          0.6804E+06
   7980      1    100     38      0.4705          0.6804E+06
   7981      1    100     39      0.4703          0.6804E+06
   7982      1    100     40      0.4706          0.6804E+06
   7983      1    100     41      0.4703          0.6804E+06
   7984      1    100     42      0.4678          0.6804E+06
   7985      1    100     43      0.4639          0.6804E+06
   7986      1    100     44      0.4587          0.6804E+06
   7987      1    100     45      0.4532          0.6804E+06
   7988      1    100     46      0.4488          0.6804E+06
   7989      1    100     47      0.4447          0.6804E+06
   7990      1    100     48      0.4420          0.6804E+06
   7991      1    100     49      0.4390          0.6804E+06
   7992      1    100     50      0.4351          0.6804E+06
   7993      1    100     51      0.4303          0.6804E+06
   7994      1    100     52      0.4228          0.6804E+06
   7995      1    100     53      0.4154          0.6804E+06
   7996      1    100     54      0.4066          0.6804E+06
   7997      1    100     55      0.3979          0.6804E+06
   7998      1    100     56      0.3905          0.6804E+06
   7999      1    100     57      0.3826          0.6804E+06
   8000      1    100     58      0.3756          0.6804E+06
   8001      1    100     59      0.3701          0.6804E+06
   8002      1    100     60      0.3645          0.6804E+06
   8003      1    100     61      0.3604          0.6804E+06
   8004      1    100     62      0.3564          0.6804E+06
   8005      1    100     63      0.3531          0.6804E+06
   8006      1    100     64      0.3509          0.6804E+06
   8007      1    100     65      0.3489          0.6804E+06
   8008      1    100     66      0.3474          0.6804E+06
   8009      1    100     67      0.3465          0.6804E+06
   8010      1    100     68      0.3457          0.6804E+06
   8011      1    100     69      0.3452          0.6804E+06
   8012      1    100     70      0.3449          0.6804E+06
   8013      1    100     71      0.3446          0.6804E+06
   8014      1    100     72      0.3444          0.6804E+06
   8015      1    100     73      0.3440          0.6804E+06
   8016      1    100     74      0.3435          0.6804E+06
   8017      1    100     75      0.3428          0.6804E+06
   8018      1    100     76      0.3416          0.6804E+06
   8019      1    100     77      0.3401          0.6804E+06
   8020      1    100     78      0.3380          0.6804E+06
   8021      1    100     79      0.3356          0.6804E+06
   8022      1    100     80      0.3335          0.6804E+06
   8023      1    100     81      0.3310          0.6804E+06
   8024      1    100     82      0.3287          0.6804E+06
   8025      1    100     83      0.3268          0.6804E+06
   8026      1    100     84      0.3251          0.6804E+06
   8027      1    100     85      0.3239          0.6804E+06
   8028      1    100     86      0.3232          0.6804E+06
   8029      1    100     87      0.3233          0.6804E+06
   8030      1    100     88      0.3238          0.6804E+06
   8031      1    100     89      0.3251          0.6804E+06
   8032      1    100     90      0.3268          0.6804E+06
   8033      1    100     91      0.3286          0.6804E+06
   8034      1    100     92      0.3307          0.6804E+06
   8035      1    100     93      0.3325          0.6804E+06
   8036      1    100     94      0.3346          0.6804E+06
   8037      1    100     95      0.3365          0.6804E+06
   8038      1    100     96      0.3379          0.6804E+06
   8039      1    100     97      0.3392          0.6804E+06
   8040      1    100     98      0.3400          0.6804E+06
   8041      1    100     99      0.3406          0.6804E+06
   8042      1    100    100      0.3410          0.6804E+06

   8042 GHB CELLS



                           RECHARGE
 READING ON UNIT   19 WITH FORMAT: (100E15.6)          
 
 SOLVING FOR HEAD 

 NO OUTPUT CONTROL FOR STRESS PERIOD    6   TIME STEP    1
 SOLVING FOR ZETA FOR LAYER     1 ZONE     2
 SOLVING FOR ZETA FOR LAYER     2 ZONE     2
 SOLVING FOR ZETA FOR LAYER     3 ZONE     2
 
 SOLVING FOR HEAD 

 NO OUTPUT CONTROL FOR STRESS PERIOD    6   TIME STEP    2
 SOLVING FOR ZETA FOR LAYER     1 ZONE     2
 SOLVING FOR ZETA FOR LAYER     2 ZONE     2
 SOLVING FOR ZETA FOR LAYER     3 ZONE     2
 
 SOLVING FOR HEAD 

 NO OUTPUT CONTROL FOR STRESS PERIOD    6   TIME STEP    3
 SOLVING FOR ZETA FOR LAYER     1 ZONE     2
 SOLVING FOR ZETA FOR LAYER     2 ZONE     2
 SOLVING FOR ZETA FOR LAYER     3 ZONE     2
 
 SOLVING FOR HEAD 

 NO OUTPUT CONTROL FOR STRESS PERIOD    6   TIME STEP    4
 SOLVING FOR ZETA FOR LAYER     1 ZONE     2
 SOLVING FOR ZETA FOR LAYER     2 ZONE     2
 SOLVING FOR ZETA FOR LAYER     3 ZONE     2
 
 SOLVING FOR HEAD 

 NO OUTPUT CONTROL FOR STRESS PERIOD    6   TIME STEP    5
 SOLVING FOR ZETA FOR LAYER     1 ZONE     2
 SOLVING FOR ZETA FOR LAYER     2 ZONE     2
 SOLVING FOR ZETA FOR LAYER     3 ZONE     2
 
 SOLVING FOR HEAD 

 NO OUTPUT CONTROL FOR STRESS PERIOD    6   TIME STEP    6
 SOLVING FOR ZETA FOR LAYER     1 ZONE     2
 SOLVING FOR ZETA FOR LAYER     2 ZONE     2
 SOLVING FOR ZETA FOR LAYER     3 ZONE     2
 
 SOLVING FOR HEAD 

 NO OUTPUT CONTROL FOR STRESS PERIOD    6   TIME STEP    7
 SOLVING FOR ZETA FOR LAYER     1 ZONE     2
 SOLVING FOR ZETA FOR LAYER     2 ZONE     2
 SOLVING FOR ZETA FOR LAYER     3 ZONE     2
 
 SOLVING FOR HEAD 

 NO OUTPUT CONTROL FOR STRESS PERIOD    6   TIME STEP    8
 SOLVING FOR ZETA FOR LAYER     1 ZONE     2
 SOLVING FOR ZETA FOR LAYER     2 ZONE     2
 SOLVING FOR ZETA FOR LAYER     3 ZONE     2
 
 SOLVING FOR HEAD 

 NO OUTPUT CONTROL FOR STRESS PERIOD    6   TIME STEP    9
 SOLVING FOR ZETA FOR LAYER     1 ZONE     2
 SOLVING FOR ZETA FOR LAYER     2 ZONE     2
 SOLVING FOR ZETA FOR LAYER     3 ZONE     2
 
 SOLVING FOR HEAD 

 NO OUTPUT CONTROL FOR STRESS PERIOD    6   TIME STEP   10
 SOLVING FOR ZETA FOR LAYER     1 ZONE     2
 SOLVING FOR ZETA FOR LAYER     2 ZONE     2
 SOLVING FOR ZETA FOR LAYER     3 ZONE     2
 
 SOLVING FOR HEAD 

 NO OUTPUT CONTROL FOR STRESS PERIOD    6   TIME STEP   11
 SOLVING FOR ZETA FOR LAYER     1 ZONE     2
 SOLVING FOR ZETA FOR LAYER     2 ZONE     2
 SOLVING FOR ZETA FOR LAYER     3 ZONE     2
 
 SOLVING FOR HEAD 

 NO OUTPUT CONTROL FOR STRESS PERIOD    6   TIME STEP   12
 SOLVING FOR ZETA FOR LAYER     1 ZONE     2
 SOLVING FOR ZETA FOR LAYER     2 ZONE     2
 SOLVING FOR ZETA FOR LAYER     3 ZONE     2
 
 SOLVING FOR HEAD 

 NO OUTPUT CONTROL FOR STRESS PERIOD    6   TIME STEP   13
 SOLVING FOR ZETA FOR LAYER     1 ZONE     2
 SOLVING FOR ZETA FOR LAYER     2 ZONE     2
 SOLVING FOR ZETA FOR LAYER     3 ZONE     2
 
 SOLVING FOR HEAD 

 NO OUTPUT CONTROL FOR STRESS PERIOD    6   TIME STEP   14
 SOLVING FOR ZETA FOR LAYER     1 ZONE     2
 SOLVING FOR ZETA FOR LAYER     2 ZONE     2
 SOLVING FOR ZETA FOR LAYER     3 ZONE     2
 
 SOLVING FOR HEAD 

 NO OUTPUT CONTROL FOR STRESS PERIOD    6   TIME STEP   15
 SOLVING FOR ZETA FOR LAYER     1 ZONE     2
 SOLVING FOR ZETA FOR LAYER     2 ZONE     2
 SOLVING FOR ZETA FOR LAYER     3 ZONE     2
 
 SOLVING FOR HEAD 

 NO OUTPUT CONTROL FOR STRESS PERIOD    6   TIME STEP   16
 SOLVING FOR ZETA FOR LAYER     1 ZONE     2
 SOLVING FOR ZETA FOR LAYER     2 ZONE     2
 SOLVING FOR ZETA FOR LAYER     3 ZONE     2
 
 SOLVING FOR HEAD 

 NO OUTPUT CONTROL FOR STRESS PERIOD    6   TIME STEP   17
 SOLVING FOR ZETA FOR LAYER     1 ZONE     2
 SOLVING FOR ZETA FOR LAYER     2 ZONE     2
 SOLVING FOR ZETA FOR LAYER     3 ZONE     2
 
 SOLVING FOR HEAD 

 NO OUTPUT CONTROL FOR STRESS PERIOD    6   TIME STEP   18
 SOLVING FOR ZETA FOR LAYER     1 ZONE     2
 SOLVING FOR ZETA FOR LAYER     2 ZONE     2
 SOLVING FOR ZETA FOR LAYER     3 ZONE     2
 
 SOLVING FOR HEAD 

 NO OUTPUT CONTROL FOR STRESS PERIOD    6   TIME STEP   19
 SOLVING FOR ZETA FOR LAYER     1 ZONE     2
 SOLVING FOR ZETA FOR LAYER     2 ZONE     2
 SOLVING FOR ZETA FOR LAYER     3 ZONE     2
 
 SOLVING FOR HEAD 

 NO OUTPUT CONTROL FOR STRESS PERIOD    6   TIME STEP   20
 SOLVING FOR ZETA FOR LAYER     1 ZONE     2
 SOLVING FOR ZETA FOR LAYER     2 ZONE     2
 SOLVING FOR ZETA FOR LAYER     3 ZONE     2
 
 SOLVING FOR HEAD 

 NO OUTPUT CONTROL FOR STRESS PERIOD    6   TIME STEP   21
 SOLVING FOR ZETA FOR LAYER     1 ZONE     2
 SOLVING FOR ZETA FOR LAYER     2 ZONE     2
 SOLVING FOR ZETA FOR LAYER     3 ZONE     2
 
 SOLVING FOR HEAD 

 NO OUTPUT CONTROL FOR STRESS PERIOD    6   TIME STEP   22
 SOLVING FOR ZETA FOR LAYER     1 ZONE     2
 SOLVING FOR ZETA FOR LAYER     2 ZONE     2
 SOLVING FOR ZETA FOR LAYER     3 ZONE     2
 
 SOLVING FOR HEAD 

 NO OUTPUT CONTROL FOR STRESS PERIOD    6   TIME STEP   23
 SOLVING FOR ZETA FOR LAYER     1 ZONE     2
 SOLVING FOR ZETA FOR LAYER     2 ZONE     2
 SOLVING FOR ZETA FOR LAYER     3 ZONE     2
 
 SOLVING FOR HEAD 

 NO OUTPUT CONTROL FOR STRESS PERIOD    6   TIME STEP   24
 SOLVING FOR ZETA FOR LAYER     1 ZONE     2
 SOLVING FOR ZETA FOR LAYER     2 ZONE     2
 SOLVING FOR ZETA FOR LAYER     3 ZONE     2
 
 SOLVING FOR HEAD 

 NO OUTPUT CONTROL FOR STRESS PERIOD    6   TIME STEP   25
 SOLVING FOR ZETA FOR LAYER     1 ZONE     2
 SOLVING FOR ZETA FOR LAYER     2 ZONE     2
 SOLVING FOR ZETA FOR LAYER     3 ZONE     2
 
 SOLVING FOR HEAD 

 NO OUTPUT CONTROL FOR STRESS PERIOD    6   TIME STEP   26
 SOLVING FOR ZETA FOR LAYER     1 ZONE     2
 SOLVING FOR ZETA FOR LAYER     2 ZONE     2
 SOLVING FOR ZETA FOR LAYER     3 ZONE     2
 
 SOLVING FOR HEAD 

 NO OUTPUT CONTROL FOR STRESS PERIOD    6   TIME STEP   27
 SOLVING FOR ZETA FOR LAYER     1 ZONE     2
 SOLVING FOR ZETA FOR LAYER     2 ZONE     2
 SOLVING FOR ZETA FOR LAYER     3 ZONE     2
 
 SOLVING FOR HEAD 

 NO OUTPUT CONTROL FOR STRESS PERIOD    6   TIME STEP   28
 SOLVING FOR ZETA FOR LAYER     1 ZONE     2
 SOLVING FOR ZETA FOR LAYER     2 ZONE     2
 SOLVING FOR ZETA FOR LAYER     3 ZONE     2
 
 SOLVING FOR HEAD 

 NO OUTPUT CONTROL FOR STRESS PERIOD    6   TIME STEP   29
 SOLVING FOR ZETA FOR LAYER     1 ZONE     2
 SOLVING FOR ZETA FOR LAYER     2 ZONE     2
 SOLVING FOR ZETA FOR LAYER     3 ZONE     2
 
 SOLVING FOR HEAD 

 NO OUTPUT CONTROL FOR STRESS PERIOD    6   TIME STEP   30
 SOLVING FOR ZETA FOR LAYER     1 ZONE     2
 SOLVING FOR ZETA FOR LAYER     2 ZONE     2
 SOLVING FOR ZETA FOR LAYER     3 ZONE     2
 
 SOLVING FOR HEAD 

 NO OUTPUT CONTROL FOR STRESS PERIOD    6   TIME STEP   31
 SOLVING FOR ZETA FOR LAYER     1 ZONE     2
 SOLVING FOR ZETA FOR LAYER     2 ZONE     2
 SOLVING FOR ZETA FOR LAYER     3 ZONE     2
 
 SOLVING FOR HEAD 

 NO OUTPUT CONTROL FOR STRESS PERIOD    6   TIME STEP   32
 SOLVING FOR ZETA FOR LAYER     1 ZONE     2
 SOLVING FOR ZETA FOR LAYER     2 ZONE     2
 SOLVING FOR ZETA FOR LAYER     3 ZONE     2
 
 SOLVING FOR HEAD 

 NO OUTPUT CONTROL FOR STRESS PERIOD    6   TIME STEP   33
 SOLVING FOR ZETA FOR LAYER     1 ZONE     2
 SOLVING FOR ZETA FOR LAYER     2 ZONE     2
 SOLVING FOR ZETA FOR LAYER     3 ZONE     2
 
 SOLVING FOR HEAD 

 NO OUTPUT CONTROL FOR STRESS PERIOD    6   TIME STEP   34
 SOLVING FOR ZETA FOR LAYER     1 ZONE     2
 SOLVING FOR ZETA FOR LAYER     2 ZONE     2
 SOLVING FOR ZETA FOR LAYER     3 ZONE     2
 
 SOLVING FOR HEAD 

 NO OUTPUT CONTROL FOR STRESS PERIOD    6   TIME STEP   35
 SOLVING FOR ZETA FOR LAYER     1 ZONE     2
 SOLVING FOR ZETA FOR LAYER     2 ZONE     2
 SOLVING FOR ZETA FOR LAYER     3 ZONE     2
 
 SOLVING FOR HEAD 

 NO OUTPUT CONTROL FOR STRESS PERIOD    6   TIME STEP   36
 SOLVING FOR ZETA FOR LAYER     1 ZONE     2
 SOLVING FOR ZETA FOR LAYER     2 ZONE     2
 SOLVING FOR ZETA FOR LAYER     3 ZONE     2
 
 SOLVING FOR HEAD 

 NO OUTPUT CONTROL FOR STRESS PERIOD    6   TIME STEP   37
 SOLVING FOR ZETA FOR LAYER     1 ZONE     2
 SOLVING FOR ZETA FOR LAYER     2 ZONE     2
 SOLVING FOR ZETA FOR LAYER     3 ZONE     2
 
 SOLVING FOR HEAD 

 NO OUTPUT CONTROL FOR STRESS PERIOD    6   TIME STEP   38
 SOLVING FOR ZETA FOR LAYER     1 ZONE     2
 SOLVING FOR ZETA FOR LAYER     2 ZONE     2
 SOLVING FOR ZETA FOR LAYER     3 ZONE     2
 
 SOLVING FOR HEAD 

 NO OUTPUT CONTROL FOR STRESS PERIOD    6   TIME STEP   39
 SOLVING FOR ZETA FOR LAYER     1 ZONE     2
 SOLVING FOR ZETA FOR LAYER     2 ZONE     2
 SOLVING FOR ZETA FOR LAYER     3 ZONE     2
 
 SOLVING FOR HEAD 

 NO OUTPUT CONTROL FOR STRESS PERIOD    6   TIME STEP   40
 SOLVING FOR ZETA FOR LAYER     1 ZONE     2
 SOLVING FOR ZETA FOR LAYER     2 ZONE     2
 SOLVING FOR ZETA FOR LAYER     3 ZONE     2
 
 SOLVING FOR HEAD 

 NO OUTPUT CONTROL FOR STRESS PERIOD    6   TIME STEP   41
 SOLVING FOR ZETA FOR LAYER     1 ZONE     2
 SOLVING FOR ZETA FOR LAYER     2 ZONE     2
 SOLVING FOR ZETA FOR LAYER     3 ZONE     2
 
 SOLVING FOR HEAD 

 NO OUTPUT CONTROL FOR STRESS PERIOD    6   TIME STEP   42
 SOLVING FOR ZETA FOR LAYER     1 ZONE     2
 SOLVING FOR ZETA FOR LAYER     2 ZONE     2
 SOLVING FOR ZETA FOR LAYER     3 ZONE     2
 
 SOLVING FOR HEAD 

 NO OUTPUT CONTROL FOR STRESS PERIOD    6   TIME STEP   43
 SOLVING FOR ZETA FOR LAYER     1 ZONE     2
 SOLVING FOR ZETA FOR LAYER     2 ZONE     2
 SOLVING FOR ZETA FOR LAYER     3 ZONE     2
 
 SOLVING FOR HEAD 

 NO OUTPUT CONTROL FOR STRESS PERIOD    6   TIME STEP   44
 SOLVING FOR ZETA FOR LAYER     1 ZONE     2
 SOLVING FOR ZETA FOR LAYER     2 ZONE     2
 SOLVING FOR ZETA FOR LAYER     3 ZONE     2
 
 SOLVING FOR HEAD 

 NO OUTPUT CONTROL FOR STRESS PERIOD    6   TIME STEP   45
 SOLVING FOR ZETA FOR LAYER     1 ZONE     2
 SOLVING FOR ZETA FOR LAYER     2 ZONE     2
 SOLVING FOR ZETA FOR LAYER     3 ZONE     2
 
 SOLVING FOR HEAD 

 NO OUTPUT CONTROL FOR STRESS PERIOD    6   TIME STEP   46
 SOLVING FOR ZETA FOR LAYER     1 ZONE     2
 SOLVING FOR ZETA FOR LAYER     2 ZONE     2
 SOLVING FOR ZETA FOR LAYER     3 ZONE     2
 
 SOLVING FOR HEAD 

 NO OUTPUT CONTROL FOR STRESS PERIOD    6   TIME STEP   47
 SOLVING FOR ZETA FOR LAYER     1 ZONE     2
 SOLVING FOR ZETA FOR LAYER     2 ZONE     2
 SOLVING FOR ZETA FOR LAYER     3 ZONE     2
 
 SOLVING FOR HEAD 

 NO OUTPUT CONTROL FOR STRESS PERIOD    6   TIME STEP   48
 SOLVING FOR ZETA FOR LAYER     1 ZONE     2
 SOLVING FOR ZETA FOR LAYER     2 ZONE     2
 SOLVING FOR ZETA FOR LAYER     3 ZONE     2
 
 SOLVING FOR HEAD 

 NO OUTPUT CONTROL FOR STRESS PERIOD    6   TIME STEP   49
 SOLVING FOR ZETA FOR LAYER     1 ZONE     2
 SOLVING FOR ZETA FOR LAYER     2 ZONE     2
 SOLVING FOR ZETA FOR LAYER     3 ZONE     2
 
 SOLVING FOR HEAD 

 NO OUTPUT CONTROL FOR STRESS PERIOD    6   TIME STEP   50
 SOLVING FOR ZETA FOR LAYER     1 ZONE     2
 SOLVING FOR ZETA FOR LAYER     2 ZONE     2
 SOLVING FOR ZETA FOR LAYER     3 ZONE     2
 
 SOLVING FOR HEAD 

 NO OUTPUT CONTROL FOR STRESS PERIOD    6   TIME STEP   51
 SOLVING FOR ZETA FOR LAYER     1 ZONE     2
 SOLVING FOR ZETA FOR LAYER     2 ZONE     2
 SOLVING FOR ZETA FOR LAYER     3 ZONE     2
 
 SOLVING FOR HEAD 

 NO OUTPUT CONTROL FOR STRESS PERIOD    6   TIME STEP   52
 SOLVING FOR ZETA FOR LAYER     1 ZONE     2
 SOLVING FOR ZETA FOR LAYER     2 ZONE     2
 SOLVING FOR ZETA FOR LAYER     3 ZONE     2
 
 SOLVING FOR HEAD 

 NO OUTPUT CONTROL FOR STRESS PERIOD    6   TIME STEP   53
 SOLVING FOR ZETA FOR LAYER     1 ZONE     2
 SOLVING FOR ZETA FOR LAYER     2 ZONE     2
 SOLVING FOR ZETA FOR LAYER     3 ZONE     2
 
 SOLVING FOR HEAD 

 NO OUTPUT CONTROL FOR STRESS PERIOD    6   TIME STEP   54
 SOLVING FOR ZETA FOR LAYER     1 ZONE     2
 SOLVING FOR ZETA FOR LAYER     2 ZONE     2
 SOLVING FOR ZETA FOR LAYER     3 ZONE     2
 
 SOLVING FOR HEAD 

 NO OUTPUT CONTROL FOR STRESS PERIOD    6   TIME STEP   55
 SOLVING FOR ZETA FOR LAYER     1 ZONE     2
 SOLVING FOR ZETA FOR LAYER     2 ZONE     2
 SOLVING FOR ZETA FOR LAYER     3 ZONE     2
 
 SOLVING FOR HEAD 

 NO OUTPUT CONTROL FOR STRESS PERIOD    6   TIME STEP   56
 SOLVING FOR ZETA FOR LAYER     1 ZONE     2
 SOLVING FOR ZETA FOR LAYER     2 ZONE     2
 SOLVING FOR ZETA FOR LAYER     3 ZONE     2
 
 SOLVING FOR HEAD 

 NO OUTPUT CONTROL FOR STRESS PERIOD    6   TIME STEP   57
 SOLVING FOR ZETA FOR LAYER     1 ZONE     2
 SOLVING FOR ZETA FOR LAYER     2 ZONE     2
 SOLVING FOR ZETA FOR LAYER     3 ZONE     2
 
 SOLVING FOR HEAD 

 NO OUTPUT CONTROL FOR STRESS PERIOD    6   TIME STEP   58
 SOLVING FOR ZETA FOR LAYER     1 ZONE     2
 SOLVING FOR ZETA FOR LAYER     2 ZONE     2
 SOLVING FOR ZETA FOR LAYER     3 ZONE     2
 
 SOLVING FOR HEAD 

 NO OUTPUT CONTROL FOR STRESS PERIOD    6   TIME STEP   59
 SOLVING FOR ZETA FOR LAYER     1 ZONE     2
 SOLVING FOR ZETA FOR LAYER     2 ZONE     2
 SOLVING FOR ZETA FOR LAYER     3 ZONE     2
 
 SOLVING FOR HEAD 

 NO OUTPUT CONTROL FOR STRESS PERIOD    6   TIME STEP   60
 SOLVING FOR ZETA FOR LAYER     1 ZONE     2
 SOLVING FOR ZETA FOR LAYER     2 ZONE     2
 SOLVING FOR ZETA FOR LAYER     3 ZONE     2
 
 SOLVING FOR HEAD 

 NO OUTPUT CONTROL FOR STRESS PERIOD    6   TIME STEP   61
 SOLVING FOR ZETA FOR LAYER     1 ZONE     2
 SOLVING FOR ZETA FOR LAYER     2 ZONE     2
 SOLVING FOR ZETA FOR LAYER     3 ZONE     2
 
 SOLVING FOR HEAD 

 NO OUTPUT CONTROL FOR STRESS PERIOD    6   TIME STEP   62
 SOLVING FOR ZETA FOR LAYER     1 ZONE     2
 SOLVING FOR ZETA FOR LAYER     2 ZONE     2
 SOLVING FOR ZETA FOR LAYER     3 ZONE     2
 
 SOLVING FOR HEAD 

 NO OUTPUT CONTROL FOR STRESS PERIOD    6   TIME STEP   63
 SOLVING FOR ZETA FOR LAYER     1 ZONE     2
 SOLVING FOR ZETA FOR LAYER     2 ZONE     2
 SOLVING FOR ZETA FOR LAYER     3 ZONE     2
 
 SOLVING FOR HEAD 

 NO OUTPUT CONTROL FOR STRESS PERIOD    6   TIME STEP   64
 SOLVING FOR ZETA FOR LAYER     1 ZONE     2
 SOLVING FOR ZETA FOR LAYER     2 ZONE     2
 SOLVING FOR ZETA FOR LAYER     3 ZONE     2
 
 SOLVING FOR HEAD 

 NO OUTPUT CONTROL FOR STRESS PERIOD    6   TIME STEP   65
 SOLVING FOR ZETA FOR LAYER     1 ZONE     2
 SOLVING FOR ZETA FOR LAYER     2 ZONE     2
 SOLVING FOR ZETA FOR LAYER     3 ZONE     2
 
 SOLVING FOR HEAD 

 NO OUTPUT CONTROL FOR STRESS PERIOD    6   TIME STEP   66
 SOLVING FOR ZETA FOR LAYER     1 ZONE     2
 SOLVING FOR ZETA FOR LAYER     2 ZONE     2
 SOLVING FOR ZETA FOR LAYER     3 ZONE     2
 
 SOLVING FOR HEAD 

 NO OUTPUT CONTROL FOR STRESS PERIOD    6   TIME STEP   67
 SOLVING FOR ZETA FOR LAYER     1 ZONE     2
 SOLVING FOR ZETA FOR LAYER     2 ZONE     2
 SOLVING FOR ZETA FOR LAYER     3 ZONE     2
 
 SOLVING FOR HEAD 

 NO OUTPUT CONTROL FOR STRESS PERIOD    6   TIME STEP   68
 SOLVING FOR ZETA FOR LAYER     1 ZONE     2
 SOLVING FOR ZETA FOR LAYER     2 ZONE     2
 SOLVING FOR ZETA FOR LAYER     3 ZONE     2
 
 SOLVING FOR HEAD 

 NO OUTPUT CONTROL FOR STRESS PERIOD    6   TIME STEP   69
 SOLVING FOR ZETA FOR LAYER     1 ZONE     2
 SOLVING FOR ZETA FOR LAYER     2 ZONE     2
 SOLVING FOR ZETA FOR LAYER     3 ZONE     2
 
 SOLVING FOR HEAD 

 NO OUTPUT CONTROL FOR STRESS PERIOD    6   TIME STEP   70
 SOLVING FOR ZETA FOR LAYER     1 ZONE     2
 SOLVING FOR ZETA FOR LAYER     2 ZONE     2
 SOLVING FOR ZETA FOR LAYER     3 ZONE     2
 
 SOLVING FOR HEAD 

 NO OUTPUT CONTROL FOR STRESS PERIOD    6   TIME STEP   71
 SOLVING FOR ZETA FOR LAYER     1 ZONE     2
 SOLVING FOR ZETA FOR LAYER     2 ZONE     2
 SOLVING FOR ZETA FOR LAYER     3 ZONE     2
 
 SOLVING FOR HEAD 

 NO OUTPUT CONTROL FOR STRESS PERIOD    6   TIME STEP   72
 SOLVING FOR ZETA FOR LAYER     1 ZONE     2
 SOLVING FOR ZETA FOR LAYER     2 ZONE     2
 SOLVING FOR ZETA FOR LAYER     3 ZONE     2
 
 SOLVING FOR HEAD 

 NO OUTPUT CONTROL FOR STRESS PERIOD    6   TIME STEP   73
 SOLVING FOR ZETA FOR LAYER     1 ZONE     2
 SOLVING FOR ZETA FOR LAYER     2 ZONE     2
 SOLVING FOR ZETA FOR LAYER     3 ZONE     2
 
 SOLVING FOR HEAD 

 NO OUTPUT CONTROL FOR STRESS PERIOD    6   TIME STEP   74
 SOLVING FOR ZETA FOR LAYER     1 ZONE     2
 SOLVING FOR ZETA FOR LAYER     2 ZONE     2
 SOLVING FOR ZETA FOR LAYER     3 ZONE     2
 
 SOLVING FOR HEAD 

 NO OUTPUT CONTROL FOR STRESS PERIOD    6   TIME STEP   75
 SOLVING FOR ZETA FOR LAYER     1 ZONE     2
 SOLVING FOR ZETA FOR LAYER     2 ZONE     2
 SOLVING FOR ZETA FOR LAYER     3 ZONE     2
 
 SOLVING FOR HEAD 

 NO OUTPUT CONTROL FOR STRESS PERIOD    6   TIME STEP   76
 SOLVING FOR ZETA FOR LAYER     1 ZONE     2
 SOLVING FOR ZETA FOR LAYER     2 ZONE     2
 SOLVING FOR ZETA FOR LAYER     3 ZONE     2
 
 SOLVING FOR HEAD 

 NO OUTPUT CONTROL FOR STRESS PERIOD    6   TIME STEP   77
 SOLVING FOR ZETA FOR LAYER     1 ZONE     2
 SOLVING FOR ZETA FOR LAYER     2 ZONE     2
 SOLVING FOR ZETA FOR LAYER     3 ZONE     2
 
 SOLVING FOR HEAD 

 NO OUTPUT CONTROL FOR STRESS PERIOD    6   TIME STEP   78
 SOLVING FOR ZETA FOR LAYER     1 ZONE     2
 SOLVING FOR ZETA FOR LAYER     2 ZONE     2
 SOLVING FOR ZETA FOR LAYER     3 ZONE     2
 
 SOLVING FOR HEAD 

 NO OUTPUT CONTROL FOR STRESS PERIOD    6   TIME STEP   79
 SOLVING FOR ZETA FOR LAYER     1 ZONE     2
 SOLVING FOR ZETA FOR LAYER     2 ZONE     2
 SOLVING FOR ZETA FOR LAYER     3 ZONE     2
 
 SOLVING FOR HEAD 

 NO OUTPUT CONTROL FOR STRESS PERIOD    6   TIME STEP   80
 SOLVING FOR ZETA FOR LAYER     1 ZONE     2
 SOLVING FOR ZETA FOR LAYER     2 ZONE     2
 SOLVING FOR ZETA FOR LAYER     3 ZONE     2
 
 SOLVING FOR HEAD 

 NO OUTPUT CONTROL FOR STRESS PERIOD    6   TIME STEP   81
 SOLVING FOR ZETA FOR LAYER     1 ZONE     2
 SOLVING FOR ZETA FOR LAYER     2 ZONE     2
 SOLVING FOR ZETA FOR LAYER     3 ZONE     2
 
 SOLVING FOR HEAD 

 NO OUTPUT CONTROL FOR STRESS PERIOD    6   TIME STEP   82
 SOLVING FOR ZETA FOR LAYER     1 ZONE     2
 SOLVING FOR ZETA FOR LAYER     2 ZONE     2
 SOLVING FOR ZETA FOR LAYER     3 ZONE     2
 
 SOLVING FOR HEAD 

 NO OUTPUT CONTROL FOR STRESS PERIOD    6   TIME STEP   83
 SOLVING FOR ZETA FOR LAYER     1 ZONE     2
 SOLVING FOR ZETA FOR LAYER     2 ZONE     2
 SOLVING FOR ZETA FOR LAYER     3 ZONE     2
 
 SOLVING FOR HEAD 

 NO OUTPUT CONTROL FOR STRESS PERIOD    6   TIME STEP   84
 SOLVING FOR ZETA FOR LAYER     1 ZONE     2
 SOLVING FOR ZETA FOR LAYER     2 ZONE     2
 SOLVING FOR ZETA FOR LAYER     3 ZONE     2
 
 SOLVING FOR HEAD 

 NO OUTPUT CONTROL FOR STRESS PERIOD    6   TIME STEP   85
 SOLVING FOR ZETA FOR LAYER     1 ZONE     2
 SOLVING FOR ZETA FOR LAYER     2 ZONE     2
 SOLVING FOR ZETA FOR LAYER     3 ZONE     2
 
 SOLVING FOR HEAD 

 NO OUTPUT CONTROL FOR STRESS PERIOD    6   TIME STEP   86
 SOLVING FOR ZETA FOR LAYER     1 ZONE     2
 SOLVING FOR ZETA FOR LAYER     2 ZONE     2
 SOLVING FOR ZETA FOR LAYER     3 ZONE     2
 
 SOLVING FOR HEAD 

 NO OUTPUT CONTROL FOR STRESS PERIOD    6   TIME STEP   87
 SOLVING FOR ZETA FOR LAYER     1 ZONE     2
 SOLVING FOR ZETA FOR LAYER     2 ZONE     2
 SOLVING FOR ZETA FOR LAYER     3 ZONE     2
 
 SOLVING FOR HEAD 

 NO OUTPUT CONTROL FOR STRESS PERIOD    6   TIME STEP   88
 SOLVING FOR ZETA FOR LAYER     1 ZONE     2
 SOLVING FOR ZETA FOR LAYER     2 ZONE     2
 SOLVING FOR ZETA FOR LAYER     3 ZONE     2
 
 SOLVING FOR HEAD 

 NO OUTPUT CONTROL FOR STRESS PERIOD    6   TIME STEP   89
 SOLVING FOR ZETA FOR LAYER     1 ZONE     2
 SOLVING FOR ZETA FOR LAYER     2 ZONE     2
 SOLVING FOR ZETA FOR LAYER     3 ZONE     2
 
 SOLVING FOR HEAD 

 NO OUTPUT CONTROL FOR STRESS PERIOD    6   TIME STEP   90
 SOLVING FOR ZETA FOR LAYER     1 ZONE     2
 SOLVING FOR ZETA FOR LAYER     2 ZONE     2
 SOLVING FOR ZETA FOR LAYER     3 ZONE     2
 
 SOLVING FOR HEAD 

 NO OUTPUT CONTROL FOR STRESS PERIOD    6   TIME STEP   91
 SOLVING FOR ZETA FOR LAYER     1 ZONE     2
 SOLVING FOR ZETA FOR LAYER     2 ZONE     2
 SOLVING FOR ZETA FOR LAYER     3 ZONE     2
 
 SOLVING FOR HEAD 

 OUTPUT CONTROL FOR STRESS PERIOD    6   TIME STEP   92
    PRINT BUDGET
    SAVE HEAD FOR ALL LAYERS
 SOLVING FOR ZETA FOR LAYER     1 ZONE     2
 SOLVING FOR ZETA FOR LAYER     2 ZONE     2
 SOLVING FOR ZETA FOR LAYER     3 ZONE     2
 UBUDSV SAVING "      ZETASRF  1" ON UNIT 55 AT TIME STEP 92, STRESS PERIOD    6


                      VOLUMETRIC SWI ZONE BUDGET FOR ENTIRE MODEL
                     AT END OF TIME STEP   92 IN STRESS PERIOD   6
                                      ZONE     1
  -----------------------------------------------------------------------------------

        CUMULATIVE VOLUMES      L**3       RATES FOR THIS TIME STEP      L**3/T
        ------------------                 ------------------------

              IN:                                      IN:
              ---                                      ---
             BOUNDARIES =   421553760.0000            BOUNDARIES =       3.8666E-02
          CONSTANT HEAD =           0.0000         CONSTANT HEAD =           0.0000
            ZONE CHANGE =    13454986.0000           ZONE CHANGE =         674.0773
       ZONE CHG TIP/TOE =   217984832.0000      ZONE CHG TIP/TOE =          16.4212
            ZONE MIXING =     1078406.8750           ZONE MIXING =           0.0000

               TOTAL IN =   654071936.0000              TOTAL IN =         690.5371

             OUT:                                     OUT:
             ----                                     ----
             BOUNDARIES =   274012288.0000            BOUNDARIES =         587.8442
          CONSTANT HEAD =           0.0000         CONSTANT HEAD =           0.0000
            ZONE CHANGE =   231233232.0000           ZONE CHANGE =          37.4406
       ZONE CHG TIP/TOE =      394491.4062      ZONE CHG TIP/TOE =           3.5085
            ZONE MIXING =    61514220.0000           ZONE MIXING =          58.2583

              TOTAL OUT =   567154240.0000             TOTAL OUT =         687.0518

               IN - OUT =    86917696.0000              IN - OUT =           3.4854

    PERCENT DISCREPANCY =          14.23     PERCENT DISCREPANCY =           0.51



                      VOLUMETRIC SWI ZONE BUDGET FOR ENTIRE MODEL
                     AT END OF TIME STEP   92 IN STRESS PERIOD   6
                                      ZONE     2
  -----------------------------------------------------------------------------------

        CUMULATIVE VOLUMES      L**3       RATES FOR THIS TIME STEP      L**3/T
        ------------------                 ------------------------

              IN:                                      IN:
              ---                                      ---
             BOUNDARIES =    83666192.0000            BOUNDARIES =         851.9766
          CONSTANT HEAD =           0.0000         CONSTANT HEAD =           0.0000
            ZONE CHANGE =    13095769.0000           ZONE CHANGE =         128.5532
       ZONE CHG TIP/TOE =   141194736.0000      ZONE CHG TIP/TOE =          16.9308
            ZONE MIXING =    61514220.0000           ZONE MIXING =          58.2583

               TOTAL IN =   299470912.0000              TOTAL IN =        1055.7189

             OUT:                                     OUT:
             ----                                     ----
             BOUNDARIES =   231543536.0000            BOUNDARIES =         463.6862
          CONSTANT HEAD =           0.0000         CONSTANT HEAD =           0.0000
            ZONE CHANGE =   153936800.0000           ZONE CHANGE =         579.2319
       ZONE CHG TIP/TOE =      140169.8906      ZONE CHG TIP/TOE =           4.3835
            ZONE MIXING =     1078406.8750           ZONE MIXING =           0.0000

              TOTAL OUT =   386698880.0000             TOTAL OUT =        1047.3018

               IN - OUT =   -87227968.0000              IN - OUT =           8.4171

    PERCENT DISCREPANCY =         -25.42     PERCENT DISCREPANCY =           0.80


 HEAD WILL BE SAVED ON UNIT   51 AT END OF TIME STEP   92, STRESS PERIOD    6
1
  VOLUMETRIC BUDGET FOR ENTIRE MODEL AT END OF TIME STEP   92, STRESS PERIOD   6
  ------------------------------------------------------------------------------

     CUMULATIVE VOLUMES      L**3       RATES FOR THIS TIME STEP      L**3/T
     ------------------                 ------------------------

           IN:                                      IN:
           ---                                      ---
             STORAGE =      290885.9688               STORAGE =         197.6776
       CONSTANT HEAD =           0.0000         CONSTANT HEAD =           0.0000
          SWIADDTOCH =           0.0000            SWIADDTOCH =           0.0000
               WELLS =           0.0000                 WELLS =           0.0000
     HEAD DEP BOUNDS =    73820896.0000       HEAD DEP BOUNDS =         852.0283
            RECHARGE =   431397056.0000              RECHARGE =           0.0000

            TOTAL IN =   505508832.0000              TOTAL IN =        1049.7058

          OUT:                                     OUT:
          ----                                     ----
             STORAGE =      215426.6719               STORAGE =           2.0194
       CONSTANT HEAD =           0.0000         CONSTANT HEAD =           0.0000
          SWIADDTOCH =           0.0000            SWIADDTOCH =           0.0000
               WELLS =       28576.9355                 WELLS =         103.5400
     HEAD DEP BOUNDS =   505528000.0000       HEAD DEP BOUNDS =         948.2350
            RECHARGE =           0.0000              RECHARGE =           0.0000

           TOTAL OUT =   505772000.0000             TOTAL OUT =        1053.7944

            IN - OUT =     -263168.0000              IN - OUT =          -4.0886

 PERCENT DISCREPANCY =          -0.05     PERCENT DISCREPANCY =          -0.39






         TIME SUMMARY AT END OF TIME STEP   92 IN STRESS PERIOD    6
                    SECONDS     MINUTES      HOURS       DAYS        YEARS
                    -----------------------------------------------------------
   TIME STEP LENGTH  86400.      1440.0      24.000      1.0000     2.73785E-03
 STRESS PERIOD TIME 7.94880E+06 1.32480E+05  2208.0      92.000     0.25188    
         TOTAL TIME 6.38256E+09 1.06376E+08 1.77293E+06  73872.      202.25    
1

 Run end date and time (yyyy/mm/dd hh:mm:ss): 2017/12/17 15:52:20
 Elapsed run time:  7 Minutes, 52.936 Seconds

