                                  MODFLOW-2005     
      U.S. GEOLOGICAL SURVEY MODULAR FINITE-DIFFERENCE GROUND-WATER FLOW MODEL
                            VERSION 1.12.00 2/3/2017

 LIST FILE: swifogland_s1.list
                         UNIT    2

 OPENING swifogland_s1.dis
 FILE TYPE:DIS   UNIT   11   STATUS:OLD    
 FORMAT:FORMATTED              ACCESS:SEQUENTIAL          

 OPENING swifogland_s1.bas
 FILE TYPE:BAS6   UNIT   13   STATUS:OLD    
 FORMAT:FORMATTED              ACCESS:SEQUENTIAL          

 OPENING swifogland_s1.lpf
 FILE TYPE:LPF   UNIT   15   STATUS:OLD    
 FORMAT:FORMATTED              ACCESS:SEQUENTIAL          

 OPENING swifogland_s1.ghb
 FILE TYPE:GHB   UNIT   23   STATUS:OLD    
 FORMAT:FORMATTED              ACCESS:SEQUENTIAL          

 OPENING swifogland_s1.rch
 FILE TYPE:RCH   UNIT   19   STATUS:OLD    
 FORMAT:FORMATTED              ACCESS:SEQUENTIAL          

 OPENING swifogland_s1.swi2
 FILE TYPE:SWI2   UNIT   29   STATUS:OLD    
 FORMAT:FORMATTED              ACCESS:SEQUENTIAL          

 OPENING swifogland_s1.oc
 FILE TYPE:OC   UNIT   14   STATUS:OLD    
 FORMAT:FORMATTED              ACCESS:SEQUENTIAL          

 OPENING swifogland_s1.pcg
 FILE TYPE:PCG   UNIT   27   STATUS:OLD    
 FORMAT:FORMATTED              ACCESS:SEQUENTIAL          

 OPENING swifogland_s1.zta
 FILE TYPE:DATA(BINARY)   UNIT   55   STATUS:REPLACE
 FORMAT:UNFORMATTED            ACCESS:STREAM              

 OPENING swifogland_s1.zobs.out
 FILE TYPE:DATA   UNIT 1051   STATUS:UNKNOWN
 FORMAT:FORMATTED              ACCESS:SEQUENTIAL          

 OPENING swifogland_s1.hds
 FILE TYPE:DATA(BINARY)   UNIT   51   STATUS:REPLACE
 FORMAT:UNFORMATTED            ACCESS:STREAM              

 BAS -- BASIC PACKAGE, VERSION 7, 5/2/2005 INPUT READ FROM UNIT   13
 
 MODFLOW was compiled using mixed precision
 Precision of REAL variables:           6
 Precision of DOUBLE PRECISION variables:          15

 DISCRETIZATION INPUT DATA READ FROM UNIT   11
 # DIS package for  MODFLOW-2005, generated by Flopy.
    1 LAYERS       100 ROWS       100 COLUMNS
    3 STRESS PERIOD(S) IN SIMULATION
 MODEL TIME UNIT IS DAYS
 MODEL LENGTH UNIT IS METERS
  Confining bed flag for each layer:
   0



                               DELR
 READING ON UNIT   11 WITH FORMAT: (100E15.6)          



                               DELC
 READING ON UNIT   11 WITH FORMAT: (100E15.6)          



           TOP ELEVATION OF LAYER 1
 READING ON UNIT   11 WITH FORMAT: (100E15.6)          

   MODEL LAYER BOTTOM EL. =  -120.000     FOR LAYER   1


 STRESS PERIOD     LENGTH       TIME STEPS     MULTIPLIER FOR DELT    SS FLAG
 ----------------------------------------------------------------------------
        1         73050.00       1000                    1.000         SS
        2         4383.000        120                    1.000         SS
        3         6574.500        180                    1.000         SS

 STEADY-STATE SIMULATION



 
 # BAS6 package for  MODFLOW-2005, generated by Flopy.                           
 THE FREE FORMAT OPTION HAS BEEN SELECTED



                     BOUNDARY ARRAY FOR LAYER   1
 READING ON UNIT   13 WITH FORMAT: (100I10)            

 AQUIFER HEAD WILL BE SET TO  -999.99     AT ALL NO-FLOW NODES (IBOUND=0).



                       INITIAL HEAD FOR LAYER   1
 READING ON UNIT   13 WITH FORMAT: (100E15.6)          
 # OC package for  MODFLOW-2005, generated by Flopy.

 OUTPUT CONTROL IS SPECIFIED ONLY AT TIME STEPS FOR WHICH OUTPUT IS DESIRED
 COMPACT CELL-BY-CELL BUDGET FILES WILL BE WRITTEN
 AUXILIARY DATA WILL BE SAVED IN CELL-BY-CELL BUDGET FILES
 HEAD PRINT FORMAT CODE IS   0    DRAWDOWN PRINT FORMAT CODE IS   0
 HEADS WILL BE SAVED ON UNIT   51    DRAWDOWNS WILL BE SAVED ON UNIT    0

 LPF -- LAYER-PROPERTY FLOW PACKAGE, VERSION 7, 5/2/2005
         INPUT READ FROM UNIT   15
 # LPF package for  MODFLOW-2005, generated by Flopy.
 HEAD AT CELLS THAT CONVERT TO DRY= -1.00000E+30
 No named parameters

   LAYER FLAGS:
 LAYER       LAYTYP        LAYAVG         CHANI        LAYVKA        LAYWET
 ---------------------------------------------------------------------------
    1             0             0     1.000E+00             0             0

   INTERPRETATION OF LAYER FLAGS:
                        INTERBLOCK     HORIZONTAL    DATA IN
         LAYER TYPE   TRANSMISSIVITY   ANISOTROPY   ARRAY VKA   WETTABILITY
 LAYER      (LAYTYP)      (LAYAVG)       (CHANI)      (LAYVKA)      (LAYWET)
 ---------------------------------------------------------------------------
    1      CONFINED      HARMONIC     1.000E+00    VERTICAL K  NON-WETTABLE

 WETTING CAPABILITY IS NOT ACTIVE IN ANY LAYER

    HYD. COND. ALONG ROWS =  1.000000E-07 FOR LAYER   1

      VERTICAL HYD. COND. =  1.000000E-08 FOR LAYER   1

 GHB -- GENERAL-HEAD BOUNDARY PACKAGE, VERSION 7, 5/2/2005
         INPUT READ FROM UNIT   23
 # GHB package for  MODFLOW-2005, generated by Flopy.
 No named parameters
 MAXIMUM OF   8042 ACTIVE GHB CELLS AT ONE TIME


     0 GHB parameters

 RCH -- RECHARGE PACKAGE, VERSION 7, 5/2/2005 INPUT READ FROM UNIT   19
 # RCH package for  MODFLOW-2005, generated by Flopy.
 No named parameters
 OPTION 3 -- RECHARGE TO HIGHEST ACTIVE NODE IN EACH VERTICAL COLUMN


     0 Recharge parameters

 PCG -- CONJUGATE-GRADIENT SOLUTION PACKAGE, VERSION 7, 5/2/2005
 # PCG package for  MODFLOW-2005, generated by Flopy.
 MAXIMUM OF    100 CALLS OF SOLUTION ROUTINE
 MAXIMUM OF     50 INTERNAL ITERATIONS PER CALL TO SOLUTION ROUTINE
 MATRIX PRECONDITIONING TYPE :    1



                                    SOLUTION BY THE CONJUGATE-GRADIENT METHOD
                                   -------------------------------------------
                    MAXIMUM NUMBER OF CALLS TO PCG ROUTINE =      100
                        MAXIMUM ITERATIONS PER CALL TO PCG =       50
                               MATRIX PRECONDITIONING TYPE =        1
        RELAXATION FACTOR (ONLY USED WITH PRECOND. TYPE 1) =    0.10000E+01
 PARAMETER OF POLYNOMIAL PRECOND. = 2 (2) OR IS CALCULATED :        0
                         HEAD CHANGE CRITERION FOR CLOSURE =    0.10000E-05
                     RESIDUAL CHANGE CRITERION FOR CLOSURE =    0.30000E-02
            PCG HEAD AND RESIDUAL CHANGE PRINTOUT INTERVAL =      999
     PRINTING FROM SOLVER IS LIMITED(1) OR SUPPRESSED (>1) =        3
                            STEADY-STATE DAMPING PARAMETER =    0.10000E+01
                               TRANSIENT DAMPING PARAMETER =    0.10000E+01


 SWI2 -- SWI PACKAGE, VERSION 2.0.0, 07/22/2013
 --------------------------------------------------
 SWI2 INPUT READ FROM UNIT 29


 # SWI2 package for  MODFLOW-2005, generated by Flopy.
 # Dataset 1


 SWI2 DATASET 1
 ----------------------------------------------------
 NUMBER OF SURFACES (NSRF):                         1
 TOTAL NUMBER OF ZONES:                             2
 DENSITY DISTRIBUTION OPTION (ISTRAT):              1
   VARIABLE DENSITY FLOW -- ISTRAT = 0
   STRATIFIED FLOW       -- ISTRAT = 1
 NUMBER OF SWI OBSERVATIONS (NOBS):                 1
 ZETA OUTPUT FILE UNIT NUMBER (ISWIZT):            55
 BUDGET OUTPUT FILE UNIT NUMBER (ISWICB):           0
 OBSERVATION OUTPUT FILE UNIT NUMBER (ISWIOBS):  1051
 ----------------------------------------------------
 # Dataset 2a


 SWI2 DATASET 2A
 ----------------------------------------------------
 SOLVER (NSOLVER):                                  1
   SOLVER =                      DIRECT SOLVER (DE4)
 SOLVER PRINTOUT INTERVAL (IPRSOL):               999
 SOLVER OUTPUT FLAG (MUTSOL):                       3
   0 = PRINTING EVERY ITERATION
   1 = LIMITED (TOTAL NUMBER OF ITERATIONS)
   2 = NO PRINTING
   3 = ONLY IF CONVERGENCE FAILS
 ----------------------------------------------------
 # Dataset 3a


 SWI2 DATASET 3A
 ----------------------------------------------------
 MAXIMUM TOE SURFACE SLOPE (TOESLOPE):      0.500E-02
 MAXIMUM TIP SURFACE SLOPE (TIPSLOPE):      0.500E-02
 EXCESS SURFACE SLOPE FRACTION (ALPHA):     0.100    
 MINIMUM ZONE THICKNESS FRACTION (BETA):    0.100    
 ----------------------------------------------------



                             NUZONE
 READING ON UNIT   29 WITH FORMAT: (2E15.6)            



                   ZETA SURFACE  1  FOR LAYER   1
 READING ON UNIT   29 WITH FORMAT: (100E15.6)          

                      SSZ =  0.200000     FOR LAYER   1



                            IZONENR FOR LAYER   1
 READING ON UNIT   29 WITH FORMAT: (100I10)            
 # Dataset 8


                 SWI2 OBSERVATION LOCATIONS
  OBSERVATION      LAYER        ROW     COLUMN       OBSNAM
 ----------------------------------------------------------
            1          1         31         36      layer1_


              SWI2 INVALID OBSERVATION LOCATIONS
 -----------------------------------------------------------
         NONE
1
                            STRESS PERIOD NO.    1, LENGTH =   73050.00    
                            -----------------------------------------------

                              NUMBER OF TIME STEPS =  1000

                               MULTIPLIER FOR DELT =     1.000

                            INITIAL TIME STEP SIZE =   73.05000    

 BOUND. NO. LAYER   ROW   COL     STAGE      CONDUCTANCE         
 ----------------------------------------------------------------
      1      1      1      1      0.3710           15.62    
      2      1      1      2      0.3728           15.62    
      3      1      1      3      0.3752           15.62    
      4      1      1      4      0.3788           15.62    
      5      1      1      5      0.3831           15.62    
      6      1      1      6      0.3866           15.62    
      7      1      1      7      0.3899           15.62    
      8      1      1      8      0.3923           15.62    
      9      1      1      9      0.3929           15.62    
     10      1      1     10      0.3920           15.62    
     11      1      1     11      0.3898           15.62    
     12      1      1     12      0.3858           15.62    
     13      1      1     13      0.3804           15.62    
     14      1      1     14      0.3745           15.62    
     15      1      1     15      0.3653           15.62    
     16      1      1     16      0.3536           15.62    
     17      1      1     17      0.3377           15.62    
     18      1      1     18      0.3210           15.62    
     19      1      1     19      0.3060           15.62    
     20      1      1     20      0.2933           15.62    
     21      1      1     21      0.2859           15.62    
     22      1      1     22      0.2825           15.62    
     23      1      1     23      0.2793           15.62    
     24      1      1     24      0.2771           15.62    
     25      1      1     25      0.2757           15.62    
     26      1      1     26      0.2760           15.62    
     27      1      1     27      0.2781           15.62    
     28      1      1     28      0.2828           15.62    
     29      1      1     29      0.2895           15.62    
     30      1      1     30      0.2965           15.62    
     31      1      1     31      0.3052           15.62    
     32      1      1     32      0.3127           15.62    
     33      1      1     33      0.3202           15.62    
     34      1      1     34      0.3261           15.62    
     35      1      1     35      0.3301           15.62    
     36      1      1     36      0.3340           15.62    
     37      1      1     37      0.3365           15.62    
     38      1      1     38      0.3374           15.62    
     39      1      1     39      0.3370           15.62    
     40      1      1     40      0.3368           15.62    
     41      1      1     41      0.3368           15.62    
     42      1      1     42      0.3373           15.62    
     43      1      1     43      0.3383           15.62    
     44      1      1     44      0.3403           15.62    
     45      1      1     45      0.3423           15.62    
     46      1      1     46      0.3432           15.62    
     47      1      1     47      0.3432           15.62    
     48      1      1     48      0.3427           15.62    
     49      1      1     49      0.3409           15.62    
     50      1      1     50      0.3379           15.62    
     51      1      1     51      0.3343           15.62    
     52      1      1     52      0.3286           15.62    
     53      1      1     53      0.3224           15.62    
     54      1      1     54      0.3148           15.62    
     55      1      1     55      0.3072           15.62    
     56      1      1     56      0.3003           15.62    
     57      1      1     57      0.2926           15.62    
     58      1      1     58      0.2852           15.62    
     59      1      1     59      0.2786           15.62    
     60      1      1     60      0.2703           15.62    
     61      1      1     61      0.2632           15.62    
     62      1      1     62      0.2554           15.62    
     63      1      1     63      0.2480           15.62    
     64      1      1     64      0.2423           15.62    
     65      1      1     65      0.2365           15.62    
     66      1      1     66      0.2312           15.62    
     67      1      1     67      0.2269           15.62    
     68      1      1     68      0.2222           15.62    
     69      1      1     69      0.2181           15.62    
     70      1      1     70      0.2135           15.62    
     71      1      1     71      0.2088           15.62    
     72      1      1     72      0.2045           15.62    
     73      1      1     73      0.1995           15.62    
     74      1      1     74      0.1936           15.62    
     75      1      1     75      0.1881           15.62    
     76      1      1     76      0.1818           15.62    
     77      1      1     77      0.1766           15.62    
     78      1      1     78      0.1703           15.62    
     79      1      1     79      0.1635           15.62    
     80      1      1     80      0.1576           15.62    
     81      1      1     81      0.1510           15.62    
     82      1      1     82      0.1439           15.62    
     83      1      1     83      0.1376           15.62    
     84      1      1     84      0.1302           15.62    
     85      1      1     85      0.1231           15.62    
     86      1      1     86      0.1147           15.62    
     87      1      1     87      0.1067           15.62    
     88      1      1     88      0.9976E-01       15.62    
     89      1      1     89      0.9168E-01       15.62    
     90      1      1     90      0.8364E-01       15.62    
     91      1      1     91      0.7626E-01       15.62    
     92      1      1     92      0.6793E-01       15.62    
     93      1      1     93      0.6125E-01       15.62    
     94      1      1     94      0.5478E-01       15.62    
     95      1      1     95      0.4816E-01       15.62    
     96      1      1     96      0.4179E-01       15.62    
     97      1      1     97      0.3279E-01       15.62    
     98      1      1     98      0.2161E-01       15.62    
     99      1      1     99      0.7204E-02       15.62    
    100      1      1    100       0.000           15.62    
    101      1      2      1      0.3913           15.62    
    102      1      2      2      0.3922           15.62    
    103      1      2      3      0.3938           15.62    
    104      1      2      4      0.3965           15.62    
    105      1      2      5      0.3999           15.62    
    106      1      2      6      0.4025           15.62    
    107      1      2      7      0.4047           15.62    
    108      1      2      8      0.4059           15.62    
    109      1      2      9      0.4053           15.62    
    110      1      2     10      0.4027           15.62    
    111      1      2     11      0.3992           15.62    
    112      1      2     12      0.3938           15.62    
    113      1      2     13      0.3871           15.62    
    114      1      2     14      0.3803           15.62    
    115      1      2     15      0.3704           15.62    
    116      1      2     16      0.3595           15.62    
    117      1      2     17      0.3453           15.62    
    118      1      2     18      0.3303           15.62    
    119      1      2     19      0.3173           15.62    
    120      1      2     20      0.3050           15.62    
    121      1      2     21      0.2960           15.62    
    122      1      2     22      0.2899           15.62    
    123      1      2     23      0.2837           15.62    
    124      1      2     24      0.2789           15.62    
    125      1      2     25      0.2743           15.62    
    126      1      2     26      0.2719           15.62    
    127      1      2     27      0.2726           15.62    
    128      1      2     28      0.2766           15.62    
    129      1      2     29      0.2834           15.62    
    130      1      2     30      0.2910           15.62    
    131      1      2     31      0.3009           15.62    
    132      1      2     32      0.3095           15.62    
    133      1      2     33      0.3174           15.62    
    134      1      2     34      0.3222           15.62    
    135      1      2     35      0.3237           15.62    
    136      1      2     36      0.3243           15.62    
    137      1      2     37      0.3245           15.62    
    138      1      2     38      0.3251           15.62    
    139      1      2     39      0.3265           15.62    
    140      1      2     40      0.3272           15.62    
    141      1      2     41      0.3274           15.62    
    142      1      2     42      0.3280           15.62    
    143      1      2     43      0.3294           15.62    
    144      1      2     44      0.3322           15.62    
    145      1      2     45      0.3351           15.62    
    146      1      2     46      0.3370           15.62    
    147      1      2     47      0.3380           15.62    
    148      1      2     48      0.3379           15.62    
    149      1      2     49      0.3359           15.62    
    150      1      2     50      0.3320           15.62    
    151      1      2     51      0.3275           15.62    
    152      1      2     52      0.3212           15.62    
    153      1      2     53      0.3148           15.62    
    154      1      2     54      0.3071           15.62    
    155      1      2     55      0.2993           15.62    
    156      1      2     56      0.2923           15.62    
    157      1      2     57      0.2846           15.62    
    158      1      2     58      0.2772           15.62    
    159      1      2     59      0.2704           15.62    
    160      1      2     60      0.2623           15.62    
    161      1      2     61      0.2555           15.62    
    162      1      2     62      0.2482           15.62    
    163      1      2     63      0.2412           15.62    
    164      1      2     64      0.2355           15.62    
    165      1      2     65      0.2296           15.62    
    166      1      2     66      0.2239           15.62    
    167      1      2     67      0.2193           15.62    
    168      1      2     68      0.2143           15.62    
    169      1      2     69      0.2102           15.62    
    170      1      2     70      0.2056           15.62    
    171      1      2     71      0.2012           15.62    
    172      1      2     72      0.1974           15.62    
    173      1      2     73      0.1926           15.62    
    174      1      2     74      0.1874           15.62    
    175      1      2     75      0.1824           15.62    
    176      1      2     76      0.1762           15.62    
    177      1      2     77      0.1705           15.62    
    178      1      2     78      0.1635           15.62    
    179      1      2     79      0.1561           15.62    
    180      1      2     80      0.1499           15.62    
    181      1      2     81      0.1434           15.62    
    182      1      2     82      0.1360           15.62    
    183      1      2     83      0.1293           15.62    
    184      1      2     84      0.1214           15.62    
    185      1      2     85      0.1141           15.62    
    186      1      2     86      0.1061           15.62    
    187      1      2     87      0.9897E-01       15.62    
    188      1      2     88      0.9295E-01       15.62    
    189      1      2     89      0.8604E-01       15.62    
    190      1      2     90      0.7935E-01       15.62    
    191      1      2     91      0.7276E-01       15.62    
    192      1      2     92      0.6489E-01       15.62    
    193      1      2     93      0.5824E-01       15.62    
    194      1      2     94      0.5107E-01       15.62    
    195      1      2     95      0.4232E-01       15.62    
    196      1      2     96      0.3331E-01       15.62    
    197      1      2     97      0.2064E-01       15.62    
    198      1      2     98      0.8544E-02       15.62    
    199      1      2     99       0.000           15.62    
    200      1      3      1      0.4115           15.62    
    201      1      3      2      0.4113           15.62    
    202      1      3      3      0.4120           15.62    
    203      1      3      4      0.4138           15.62    
    204      1      3      5      0.4163           15.62    
    205      1      3      6      0.4181           15.62    
    206      1      3      7      0.4195           15.62    
    207      1      3      8      0.4196           15.62    
    208      1      3      9      0.4177           15.62    
    209      1      3     10      0.4133           15.62    
    210      1      3     11      0.4082           15.62    
    211      1      3     12      0.4012           15.62    
    212      1      3     13      0.3932           15.62    
    213      1      3     14      0.3854           15.62    
    214      1      3     15      0.3752           15.62    
    215      1      3     16      0.3652           15.62    
    216      1      3     17      0.3530           15.62    
    217      1      3     18      0.3404           15.62    
    218      1      3     19      0.3296           15.62    
    219      1      3     20      0.3182           15.62    
    220      1      3     21      0.3077           15.62    
    221      1      3     22      0.2987           15.62    
    222      1      3     23      0.2890           15.62    
    223      1      3     24      0.2810           15.62    
    224      1      3     25      0.2728           15.62    
    225      1      3     26      0.2669           15.62    
    226      1      3     27      0.2660           15.62    
    227      1      3     28      0.2689           15.62    
    228      1      3     29      0.2754           15.62    
    229      1      3     30      0.2834           15.62    
    230      1      3     31      0.2948           15.62    
    231      1      3     32      0.3052           15.62    
    232      1      3     33      0.3141           15.62    
    233      1      3     34      0.3172           15.62    
    234      1      3     35      0.3143           15.62    
    235      1      3     36      0.3098           15.62    
    236      1      3     37      0.3063           15.62    
    237      1      3     38      0.3061           15.62    
    238      1      3     39      0.3091           15.62    
    239      1      3     40      0.3112           15.62    
    240      1      3     41      0.3127           15.62    
    241      1      3     42      0.3144           15.62    
    242      1      3     43      0.3167           15.62    
    243      1      3     44      0.3204           15.62    
    244      1      3     45      0.3245           15.62    
    245      1      3     46      0.3277           15.62    
    246      1      3     47      0.3305           15.62    
    247      1      3     48      0.3315           15.62    
    248      1      3     49      0.3295           15.62    
    249      1      3     50      0.3247           15.62    
    250      1      3     51      0.3192           15.62    
    251      1      3     52      0.3122           15.62    
    252      1      3     53      0.3055           15.62    
    253      1      3     54      0.2977           15.62    
    254      1      3     55      0.2900           15.62    
    255      1      3     56      0.2831           15.62    
    256      1      3     57      0.2759           15.62    
    257      1      3     58      0.2683           15.62    
    258      1      3     59      0.2612           15.62    
    259      1      3     60      0.2535           15.62    
    260      1      3     61      0.2472           15.62    
    261      1      3     62      0.2403           15.62    
    262      1      3     63      0.2336           15.62    
    263      1      3     64      0.2280           15.62    
    264      1      3     65      0.2220           15.62    
    265      1      3     66      0.2162           15.62    
    266      1      3     67      0.2112           15.62    
    267      1      3     68      0.2060           15.62    
    268      1      3     69      0.2019           15.62    
    269      1      3     70      0.1975           15.62    
    270      1      3     71      0.1934           15.62    
    271      1      3     72      0.1897           15.62    
    272      1      3     73      0.1853           15.62    
    273      1      3     74      0.1810           15.62    
    274      1      3     75      0.1767           15.62    
    275      1      3     76      0.1706           15.62    
    276      1      3     77      0.1643           15.62    
    277      1      3     78      0.1565           15.62    
    278      1      3     79      0.1488           15.62    
    279      1      3     80      0.1425           15.62    
    280      1      3     81      0.1357           15.62    
    281      1      3     82      0.1279           15.62    
    282      1      3     83      0.1208           15.62    
    283      1      3     84      0.1125           15.62    
    284      1      3     85      0.1051           15.62    
    285      1      3     86      0.9746E-01       15.62    
    286      1      3     87      0.9132E-01       15.62    
    287      1      3     88      0.8641E-01       15.62    
    288      1      3     89      0.8056E-01       15.62    
    289      1      3     90      0.7421E-01       15.62    
    290      1      3     91      0.6800E-01       15.62    
    291      1      3     92      0.6032E-01       15.62    
    292      1      3     93      0.5337E-01       15.62    
    293      1      3     94      0.4518E-01       15.62    
    294      1      3     95      0.3411E-01       15.62    
    295      1      3     96      0.2197E-01       15.62    
    296      1      3     97      0.8253E-02       15.62    
    297      1      3     98       0.000           15.62    
    298      1      4      1      0.4282           15.62    
    299      1      4      2      0.4272           15.62    
    300      1      4      3      0.4272           15.62    
    301      1      4      4      0.4282           15.62    
    302      1      4      5      0.4300           15.62    
    303      1      4      6      0.4313           15.62    
    304      1      4      7      0.4321           15.62    
    305      1      4      8      0.4313           15.62    
    306      1      4      9      0.4281           15.62    
    307      1      4     10      0.4220           15.62    
    308      1      4     11      0.4155           15.62    
    309      1      4     12      0.4071           15.62    
    310      1      4     13      0.3978           15.62    
    311      1      4     14      0.3892           15.62    
    312      1      4     15      0.3790           15.62    
    313      1      4     16      0.3698           15.62    
    314      1      4     17      0.3590           15.62    
    315      1      4     18      0.3485           15.62    
    316      1      4     19      0.3396           15.62    
    317      1      4     20      0.3291           15.62    
    318      1      4     21      0.3177           15.62    
    319      1      4     22      0.3063           15.62    
    320      1      4     23      0.2937           15.62    
    321      1      4     24      0.2832           15.62    
    322      1      4     25      0.2722           15.62    
    323      1      4     26      0.2635           15.62    
    324      1      4     27      0.2601           15.62    
    325      1      4     28      0.2609           15.62    
    326      1      4     29      0.2663           15.62    
    327      1      4     30      0.2744           15.62    
    328      1      4     31      0.2869           15.62    
    329      1      4     32      0.2993           15.62    
    330      1      4     33      0.3096           15.62    
    331      1      4     34      0.3110           15.62    
    332      1      4     35      0.3032           15.62    
    333      1      4     36      0.2932           15.62    
    334      1      4     37      0.2859           15.62    
    335      1      4     38      0.2843           15.62    
    336      1      4     39      0.2885           15.62    
    337      1      4     40      0.2922           15.62    
    338      1      4     41      0.2958           15.62    
    339      1      4     42      0.2994           15.62    
    340      1      4     43      0.3028           15.62    
    341      1      4     44      0.3075           15.62    
    342      1      4     45      0.3127           15.62    
    343      1      4     46      0.3173           15.62    
    344      1      4     47      0.3220           15.62    
    345      1      4     48      0.3246           15.62    
    346      1      4     49      0.3225           15.62    
    347      1      4     50      0.3165           15.62    
    348      1      4     51      0.3102           15.62    
    349      1      4     52      0.3029           15.62    
    350      1      4     53      0.2960           15.62    
    351      1      4     54      0.2882           15.62    
    352      1      4     55      0.2807           15.62    
    353      1      4     56      0.2739           15.62    
    354      1      4     57      0.2670           15.62    
    355      1      4     58      0.2597           15.62    
    356      1      4     59      0.2527           15.62    
    357      1      4     60      0.2454           15.62    
    358      1      4     61      0.2396           15.62    
    359      1      4     62      0.2330           15.62    
    360      1      4     63      0.2264           15.62    
    361      1      4     64      0.2209           15.62    
    362      1      4     65      0.2149           15.62    
    363      1      4     66      0.2088           15.62    
    364      1      4     67      0.2037           15.62    
    365      1      4     68      0.1984           15.62    
    366      1      4     69      0.1942           15.62    
    367      1      4     70      0.1899           15.62    
    368      1      4     71      0.1859           15.62    
    369      1      4     72      0.1821           15.62    
    370      1      4     73      0.1782           15.62    
    371      1      4     74      0.1748           15.62    
    372      1      4     75      0.1712           15.62    
    373      1      4     76      0.1655           15.62    
    374      1      4     77      0.1584           15.62    
    375      1      4     78      0.1499           15.62    
    376      1      4     79      0.1419           15.62    
    377      1      4     80      0.1356           15.62    
    378      1      4     81      0.1282           15.62    
    379      1      4     82      0.1203           15.62    
    380      1      4     83      0.1132           15.62    
    381      1      4     84      0.1050           15.62    
    382      1      4     85      0.9767E-01       15.62    
    383      1      4     86      0.9029E-01       15.62    
    384      1      4     87      0.8503E-01       15.62    
    385      1      4     88      0.8086E-01       15.62    
    386      1      4     89      0.7507E-01       15.62    
    387      1      4     90      0.6880E-01       15.62    
    388      1      4     91      0.6320E-01       15.62    
    389      1      4     92      0.5551E-01       15.62    
    390      1      4     93      0.4725E-01       15.62    
    391      1      4     94      0.3691E-01       15.62    
    392      1      4     95      0.2342E-01       15.62    
    393      1      4     96      0.1036E-01       15.62    
    394      1      4     97       0.000           15.62    
    395      1      5      1      0.4453           15.62    
    396      1      5      2      0.4436           15.62    
    397      1      5      3      0.4430           15.62    
    398      1      5      4      0.4434           15.62    
    399      1      5      5      0.4446           15.62    
    400      1      5      6      0.4452           15.62    
    401      1      5      7      0.4452           15.62    
    402      1      5      8      0.4432           15.62    
    403      1      5      9      0.4387           15.62    
    404      1      5     10      0.4308           15.62    
    405      1      5     11      0.4229           15.62    
    406      1      5     12      0.4129           15.62    
    407      1      5     13      0.4023           15.62    
    408      1      5     14      0.3928           15.62    
    409      1      5     15      0.3826           15.62    
    410      1      5     16      0.3740           15.62    
    411      1      5     17      0.3645           15.62    
    412      1      5     18      0.3556           15.62    
    413      1      5     19      0.3482           15.62    
    414      1      5     20      0.3386           15.62    
    415      1      5     21      0.3264           15.62    
    416      1      5     22      0.3132           15.62    
    417      1      5     23      0.2982           15.62    
    418      1      5     24      0.2856           15.62    
    419      1      5     25      0.2722           15.62    
    420      1      5     26      0.2606           15.62    
    421      1      5     27      0.2535           15.62    
    422      1      5     28      0.2501           15.62    
    423      1      5     29      0.2527           15.62    
    424      1      5     30      0.2603           15.62    
    425      1      5     31      0.2733           15.62    
    426      1      5     32      0.2867           15.62    
    427      1      5     33      0.2980           15.62    
    428      1      5     34      0.2977           15.62    
    429      1      5     35      0.2846           15.62    
    430      1      5     36      0.2692           15.62    
    431      1      5     37      0.2578           15.62    
    432      1      5     38      0.2544           15.62    
    433      1      5     39      0.2603           15.62    
    434      1      5     40      0.2662           15.62    
    435      1      5     41      0.2728           15.62    
    436      1      5     42      0.2792           15.62    
    437      1      5     43      0.2844           15.62    
    438      1      5     44      0.2903           15.62    
    439      1      5     45      0.2966           15.62    
    440      1      5     46      0.3023           15.62    
    441      1      5     47      0.3086           15.62    
    442      1      5     48      0.3128           15.62    
    443      1      5     49      0.3109           15.62    
    444      1      5     50      0.3040           15.62    
    445      1      5     51      0.2975           15.62    
    446      1      5     52      0.2902           15.62    
    447      1      5     53      0.2835           15.62    
    448      1      5     54      0.2760           15.62    
    449      1      5     55      0.2686           15.62    
    450      1      5     56      0.2622           15.62    
    451      1      5     57      0.2559           15.62    
    452      1      5     58      0.2489           15.62    
    453      1      5     59      0.2421           15.62    
    454      1      5     60      0.2355           15.62    
    455      1      5     61      0.2301           15.62    
    456      1      5     62      0.2240           15.62    
    457      1      5     63      0.2177           15.62    
    458      1      5     64      0.2123           15.62    
    459      1      5     65      0.2062           15.62    
    460      1      5     66      0.1997           15.62    
    461      1      5     67      0.1943           15.62    
    462      1      5     68      0.1890           15.62    
    463      1      5     69      0.1849           15.62    
    464      1      5     70      0.1802           15.62    
    465      1      5     71      0.1760           15.62    
    466      1      5     72      0.1725           15.62    
    467      1      5     73      0.1692           15.62    
    468      1      5     74      0.1664           15.62    
    469      1      5     75      0.1635           15.62    
    470      1      5     76      0.1581           15.62    
    471      1      5     77      0.1502           15.62    
    472      1      5     78      0.1412           15.62    
    473      1      5     79      0.1330           15.62    
    474      1      5     80      0.1265           15.62    
    475      1      5     81      0.1188           15.62    
    476      1      5     82      0.1113           15.62    
    477      1      5     83      0.1048           15.62    
    478      1      5     84      0.9716E-01       15.62    
    479      1      5     85      0.9037E-01       15.62    
    480      1      5     86      0.8347E-01       15.62    
    481      1      5     87      0.7887E-01       15.62    
    482      1      5     88      0.7524E-01       15.62    
    483      1      5     89      0.6925E-01       15.62    
    484      1      5     90      0.6233E-01       15.62    
    485      1      5     91      0.5570E-01       15.62    
    486      1      5     92      0.4648E-01       15.62    
    487      1      5     93      0.3665E-01       15.62    
    488      1      5     94      0.2376E-01       15.62    
    489      1      5     95      0.8694E-02       15.62    
    490      1      5     96       0.000           15.62    
    491      1      6      1      0.4592           15.62    
    492      1      6      2      0.4575           15.62    
    493      1      6      3      0.4568           15.62    
    494      1      6      4      0.4569           15.62    
    495      1      6      5      0.4576           15.62    
    496      1      6      6      0.4576           15.62    
    497      1      6      7      0.4564           15.62    
    498      1      6      8      0.4529           15.62    
    499      1      6      9      0.4471           15.62    
    500      1      6     10      0.4379           15.62    
    501      1      6     11      0.4288           15.62    
    502      1      6     12      0.4175           15.62    
    503      1      6     13      0.4057           15.62    
    504      1      6     14      0.3954           15.62    
    505      1      6     15      0.3848           15.62    
    506      1      6     16      0.3764           15.62    
    507      1      6     17      0.3675           15.62    
    508      1      6     18      0.3596           15.62    
    509      1      6     19      0.3529           15.62    
    510      1      6     20      0.3437           15.62    
    511      1      6     21      0.3313           15.62    
    512      1      6     22      0.3174           15.62    
    513      1      6     23      0.3012           15.62    
    514      1      6     24      0.2873           15.62    
    515      1      6     25      0.2721           15.62    
    516      1      6     26      0.2579           15.62    
    517      1      6     27      0.2468           15.62    
    518      1      6     28      0.2375           15.62    
    519      1      6     29      0.2358           15.62    
    520      1      6     30      0.2433           15.62    
    521      1      6     31      0.2552           15.62    
    522      1      6     32      0.2661           15.62    
    523      1      6     33      0.2736           15.62    
    524      1      6     34      0.2703           15.62    
    525      1      6     35      0.2579           15.62    
    526      1      6     36      0.2425           15.62    
    527      1      6     37      0.2308           15.62    
    528      1      6     38      0.2276           15.62    
    529      1      6     39      0.2336           15.62    
    530      1      6     40      0.2408           15.62    
    531      1      6     41      0.2494           15.62    
    532      1      6     42      0.2578           15.62    
    533      1      6     43      0.2642           15.62    
    534      1      6     44      0.2710           15.62    
    535      1      6     45      0.2777           15.62    
    536      1      6     46      0.2835           15.62    
    537      1      6     47      0.2896           15.62    
    538      1      6     48      0.2936           15.62    
    539      1      6     49      0.2927           15.62    
    540      1      6     50      0.2871           15.62    
    541      1      6     51      0.2816           15.62    
    542      1      6     52      0.2751           15.62    
    543      1      6     53      0.2692           15.62    
    544      1      6     54      0.2623           15.62    
    545      1      6     55      0.2554           15.62    
    546      1      6     56      0.2499           15.62    
    547      1      6     57      0.2436           15.62    
    548      1      6     58      0.2368           15.62    
    549      1      6     59      0.2306           15.62    
    550      1      6     60      0.2248           15.62    
    551      1      6     61      0.2198           15.62    
    552      1      6     62      0.2142           15.62    
    553      1      6     63      0.2083           15.62    
    554      1      6     64      0.2030           15.62    
    555      1      6     65      0.1966           15.62    
    556      1      6     66      0.1899           15.62    
    557      1      6     67      0.1844           15.62    
    558      1      6     68      0.1791           15.62    
    559      1      6     69      0.1746           15.62    
    560      1      6     70      0.1696           15.62    
    561      1      6     71      0.1653           15.62    
    562      1      6     72      0.1621           15.62    
    563      1      6     73      0.1586           15.62    
    564      1      6     74      0.1553           15.62    
    565      1      6     75      0.1518           15.62    
    566      1      6     76      0.1462           15.62    
    567      1      6     77      0.1390           15.62    
    568      1      6     78      0.1307           15.62    
    569      1      6     79      0.1224           15.62    
    570      1      6     80      0.1156           15.62    
    571      1      6     81      0.1086           15.62    
    572      1      6     82      0.1021           15.62    
    573      1      6     83      0.9642E-01       15.62    
    574      1      6     84      0.8988E-01       15.62    
    575      1      6     85      0.8392E-01       15.62    
    576      1      6     86      0.7780E-01       15.62    
    577      1      6     87      0.7317E-01       15.62    
    578      1      6     88      0.6907E-01       15.62    
    579      1      6     89      0.6223E-01       15.62    
    580      1      6     90      0.5410E-01       15.62    
    581      1      6     91      0.4560E-01       15.62    
    582      1      6     92      0.3384E-01       15.62    
    583      1      6     93      0.2190E-01       15.62    
    584      1      6     94      0.7307E-02       15.62    
    585      1      6     95       0.000           15.62    
    586      1      7      1      0.4692           15.62    
    587      1      7      2      0.4678           15.62    
    588      1      7      3      0.4673           15.62    
    589      1      7      4      0.4673           15.62    
    590      1      7      5      0.4678           15.62    
    591      1      7      6      0.4675           15.62    
    592      1      7      7      0.4654           15.62    
    593      1      7      8      0.4607           15.62    
    594      1      7      9      0.4535           15.62    
    595      1      7     10      0.4428           15.62    
    596      1      7     11      0.4324           15.62    
    597      1      7     12      0.4200           15.62    
    598      1      7     13      0.4075           15.62    
    599      1      7     14      0.3967           15.62    
    600      1      7     15      0.3853           15.62    
    601      1      7     16      0.3763           15.62    
    602      1      7     17      0.3674           15.62    
    603      1      7     18      0.3599           15.62    
    604      1      7     19      0.3536           15.62    
    605      1      7     20      0.3446           15.62    
    606      1      7     21      0.3322           15.62    
    607      1      7     22      0.3185           15.62    
    608      1      7     23      0.3020           15.62    
    609      1      7     24      0.2876           15.62    
    610      1      7     25      0.2716           15.62    
    611      1      7     26      0.2556           15.62    
    612      1      7     27      0.2417           15.62    
    613      1      7     28      0.2279           15.62    
    614      1      7     29      0.2224           15.62    
    615      1      7     30      0.2290           15.62    
    616      1      7     31      0.2387           15.62    
    617      1      7     32      0.2458           15.62    
    618      1      7     33      0.2490           15.62    
    619      1      7     34      0.2435           15.62    
    620      1      7     35      0.2324           15.62    
    621      1      7     36      0.2182           15.62    
    622      1      7     37      0.2076           15.62    
    623      1      7     38      0.2055           15.62    
    624      1      7     39      0.2120           15.62    
    625      1      7     40      0.2202           15.62    
    626      1      7     41      0.2302           15.62    
    627      1      7     42      0.2396           15.62    
    628      1      7     43      0.2465           15.62    
    629      1      7     44      0.2532           15.62    
    630      1      7     45      0.2596           15.62    
    631      1      7     46      0.2646           15.62    
    632      1      7     47      0.2694           15.62    
    633      1      7     48      0.2724           15.62    
    634      1      7     49      0.2725           15.62    
    635      1      7     50      0.2693           15.62    
    636      1      7     51      0.2655           15.62    
    637      1      7     52      0.2603           15.62    
    638      1      7     53      0.2552           15.62    
    639      1      7     54      0.2492           15.62    
    640      1      7     55      0.2433           15.62    
    641      1      7     56      0.2387           15.62    
    642      1      7     57      0.2320           15.62    
    643      1      7     58      0.2252           15.62    
    644      1      7     59      0.2201           15.62    
    645      1      7     60      0.2147           15.62    
    646      1      7     61      0.2102           15.62    
    647      1      7     62      0.2050           15.62    
    648      1      7     63      0.1995           15.62    
    649      1      7     64      0.1944           15.62    
    650      1      7     65      0.1876           15.62    
    651      1      7     66      0.1807           15.62    
    652      1      7     67      0.1752           15.62    
    653      1      7     68      0.1696           15.62    
    654      1      7     69      0.1648           15.62    
    655      1      7     70      0.1599           15.62    
    656      1      7     71      0.1556           15.62    
    657      1      7     72      0.1519           15.62    
    658      1      7     73      0.1477           15.62    
    659      1      7     74      0.1436           15.62    
    660      1      7     75      0.1396           15.62    
    661      1      7     76      0.1340           15.62    
    662      1      7     77      0.1278           15.62    
    663      1      7     78      0.1201           15.62    
    664      1      7     79      0.1119           15.62    
    665      1      7     80      0.1052           15.62    
    666      1      7     81      0.9924E-01       15.62    
    667      1      7     82      0.9380E-01       15.62    
    668      1      7     83      0.8900E-01       15.62    
    669      1      7     84      0.8319E-01       15.62    
    670      1      7     85      0.7770E-01       15.62    
    671      1      7     86      0.7259E-01       15.62    
    672      1      7     87      0.6745E-01       15.62    
    673      1      7     88      0.6189E-01       15.62    
    674      1      7     89      0.5383E-01       15.62    
    675      1      7     90      0.4454E-01       15.62    
    676      1      7     91      0.3432E-01       15.62    
    677      1      7     92      0.1993E-01       15.62    
    678      1      7     93      0.6895E-02       15.62    
    679      1      7     94       0.000           15.62    
    680      1      7     95       0.000           15.62    
    681      1      8      1      0.4782           15.62    
    682      1      8      2      0.4776           15.62    
    683      1      8      3      0.4773           15.62    
    684      1      8      4      0.4775           15.62    
    685      1      8      5      0.4779           15.62    
    686      1      8      6      0.4775           15.62    
    687      1      8      7      0.4750           15.62    
    688      1      8      8      0.4691           15.62    
    689      1      8      9      0.4599           15.62    
    690      1      8     10      0.4463           15.62    
    691      1      8     11      0.4339           15.62    
    692      1      8     12      0.4201           15.62    
    693      1      8     13      0.4072           15.62    
    694      1      8     14      0.3957           15.62    
    695      1      8     15      0.3828           15.62    
    696      1      8     16      0.3726           15.62    
    697      1      8     17      0.3634           15.62    
    698      1      8     18      0.3565           15.62    
    699      1      8     19      0.3515           15.62    
    700      1      8     20      0.3437           15.62    
    701      1      8     21      0.3314           15.62    
    702      1      8     22      0.3171           15.62    
    703      1      8     23      0.3002           15.62    
    704      1      8     24      0.2859           15.62    
    705      1      8     25      0.2702           15.62    
    706      1      8     26      0.2537           15.62    
    707      1      8     27      0.2385           15.62    
    708      1      8     28      0.2238           15.62    
    709      1      8     29      0.2161           15.62    
    710      1      8     30      0.2177           15.62    
    711      1      8     31      0.2223           15.62    
    712      1      8     32      0.2251           15.62    
    713      1      8     33      0.2242           15.62    
    714      1      8     34      0.2165           15.62    
    715      1      8     35      0.2050           15.62    
    716      1      8     36      0.1907           15.62    
    717      1      8     37      0.1806           15.62    
    718      1      8     38      0.1804           15.62    
    719      1      8     39      0.1894           15.62    
    720      1      8     40      0.1993           15.62    
    721      1      8     41      0.2107           15.62    
    722      1      8     42      0.2206           15.62    
    723      1      8     43      0.2273           15.62    
    724      1      8     44      0.2332           15.62    
    725      1      8     45      0.2384           15.62    
    726      1      8     46      0.2423           15.62    
    727      1      8     47      0.2454           15.62    
    728      1      8     48      0.2477           15.62    
    729      1      8     49      0.2489           15.62    
    730      1      8     50      0.2478           15.62    
    731      1      8     51      0.2458           15.62    
    732      1      8     52      0.2425           15.62    
    733      1      8     53      0.2386           15.62    
    734      1      8     54      0.2335           15.62    
    735      1      8     55      0.2283           15.62    
    736      1      8     56      0.2247           15.62    
    737      1      8     57      0.2183           15.62    
    738      1      8     58      0.2117           15.62    
    739      1      8     59      0.2076           15.62    
    740      1      8     60      0.2026           15.62    
    741      1      8     61      0.1985           15.62    
    742      1      8     62      0.1937           15.62    
    743      1      8     63      0.1886           15.62    
    744      1      8     64      0.1836           15.62    
    745      1      8     65      0.1765           15.62    
    746      1      8     66      0.1693           15.62    
    747      1      8     67      0.1637           15.62    
    748      1      8     68      0.1579           15.62    
    749      1      8     69      0.1530           15.62    
    750      1      8     70      0.1482           15.62    
    751      1      8     71      0.1438           15.62    
    752      1      8     72      0.1393           15.62    
    753      1      8     73      0.1341           15.62    
    754      1      8     74      0.1293           15.62    
    755      1      8     75      0.1250           15.62    
    756      1      8     76      0.1197           15.62    
    757      1      8     77      0.1147           15.62    
    758      1      8     78      0.1079           15.62    
    759      1      8     79      0.1000           15.62    
    760      1      8     80      0.9346E-01       15.62    
    761      1      8     81      0.8885E-01       15.62    
    762      1      8     82      0.8443E-01       15.62    
    763      1      8     83      0.8025E-01       15.62    
    764      1      8     84      0.7495E-01       15.62    
    765      1      8     85      0.6975E-01       15.62    
    766      1      8     86      0.6418E-01       15.62    
    767      1      8     87      0.5803E-01       15.62    
    768      1      8     88      0.5140E-01       15.62    
    769      1      8     89      0.4222E-01       15.62    
    770      1      8     90      0.3136E-01       15.62    
    771      1      8     91      0.1844E-01       15.62    
    772      1      8     92      0.1865E-02       15.62    
    773      1      8     93       0.000           15.62    
    774      1      8     94       0.000           15.62    
    775      1      9      1      0.4846           15.62    
    776      1      9      2      0.4845           15.62    
    777      1      9      3      0.4845           15.62    
    778      1      9      4      0.4848           15.62    
    779      1      9      5      0.4851           15.62    
    780      1      9      6      0.4846           15.62    
    781      1      9      7      0.4824           15.62    
    782      1      9      8      0.4759           15.62    
    783      1      9      9      0.4639           15.62    
    784      1      9     10      0.4469           15.62    
    785      1      9     11      0.4321           15.62    
    786      1      9     12      0.4168           15.62    
    787      1      9     13      0.4038           15.62    
    788      1      9     14      0.3913           15.62    
    789      1      9     15      0.3767           15.62    
    790      1      9     16      0.3652           15.62    
    791      1      9     17      0.3556           15.62    
    792      1      9     18      0.3493           15.62    
    793      1      9     19      0.3456           15.62    
    794      1      9     20      0.3394           15.62    
    795      1      9     21      0.3271           15.62    
    796      1      9     22      0.3120           15.62    
    797      1      9     23      0.2950           15.62    
    798      1      9     24      0.2811           15.62    
    799      1      9     25      0.2665           15.62    
    800      1      9     26      0.2508           15.62    
    801      1      9     27      0.2357           15.62    
    802      1      9     28      0.2211           15.62    
    803      1      9     29      0.2124           15.62    
    804      1      9     30      0.2106           15.62    
    805      1      9     31      0.2111           15.62    
    806      1      9     32      0.2110           15.62    
    807      1      9     33      0.2077           15.62    
    808      1      9     34      0.1986           15.62    
    809      1      9     35      0.1858           15.62    
    810      1      9     36      0.1688           15.62    
    811      1      9     37      0.1574           15.62    
    812      1      9     38      0.1597           15.62    
    813      1      9     39      0.1728           15.62    
    814      1      9     40      0.1848           15.62    
    815      1      9     41      0.1968           15.62    
    816      1      9     42      0.2062           15.62    
    817      1      9     43      0.2122           15.62    
    818      1      9     44      0.2168           15.62    
    819      1      9     45      0.2205           15.62    
    820      1      9     46      0.2230           15.62    
    821      1      9     47      0.2249           15.62    
    822      1      9     48      0.2270           15.62    
    823      1      9     49      0.2288           15.62    
    824      1      9     50      0.2291           15.62    
    825      1      9     51      0.2283           15.62    
    826      1      9     52      0.2264           15.62    
    827      1      9     53      0.2234           15.62    
    828      1      9     54      0.2192           15.62    
    829      1      9     55      0.2146           15.62    
    830      1      9     56      0.2109           15.62    
    831      1      9     57      0.2055           15.62    
    832      1      9     58      0.2002           15.62    
    833      1      9     59      0.1961           15.62    
    834      1      9     60      0.1912           15.62    
    835      1      9     61      0.1874           15.62    
    836      1      9     62      0.1830           15.62    
    837      1      9     63      0.1778           15.62    
    838      1      9     64      0.1726           15.62    
    839      1      9     65      0.1657           15.62    
    840      1      9     66      0.1583           15.62    
    841      1      9     67      0.1525           15.62    
    842      1      9     68      0.1473           15.62    
    843      1      9     69      0.1425           15.62    
    844      1      9     70      0.1372           15.62    
    845      1      9     71      0.1322           15.62    
    846      1      9     72      0.1275           15.62    
    847      1      9     73      0.1217           15.62    
    848      1      9     74      0.1164           15.62    
    849      1      9     75      0.1121           15.62    
    850      1      9     76      0.1077           15.62    
    851      1      9     77      0.1036           15.62    
    852      1      9     78      0.9777E-01       15.62    
    853      1      9     79      0.9066E-01       15.62    
    854      1      9     80      0.8461E-01       15.62    
    855      1      9     81      0.8050E-01       15.62    
    856      1      9     82      0.7650E-01       15.62    
    857      1      9     83      0.7250E-01       15.62    
    858      1      9     84      0.6717E-01       15.62    
    859      1      9     85      0.6218E-01       15.62    
    860      1      9     86      0.5563E-01       15.62    
    861      1      9     87      0.4796E-01       15.62    
    862      1      9     88      0.3998E-01       15.62    
    863      1      9     89      0.2944E-01       15.62    
    864      1      9     90      0.1802E-01       15.62    
    865      1      9     91      0.3275E-02       15.62    
    866      1      9     92       0.000           15.62    
    867      1      9     93       0.000           15.62    
    868      1     10      1      0.4910           15.62    
    869      1     10      2      0.4909           15.62    
    870      1     10      3      0.4909           15.62    
    871      1     10      4      0.4908           15.62    
    872      1     10      5      0.4905           15.62    
    873      1     10      6      0.4898           15.62    
    874      1     10      7      0.4881           15.62    
    875      1     10      8      0.4815           15.62    
    876      1     10      9      0.4647           15.62    
    877      1     10     10      0.4426           15.62    
    878      1     10     11      0.4242           15.62    
    879      1     10     12      0.4065           15.62    
    880      1     10     13      0.3934           15.62    
    881      1     10     14      0.3794           15.62    
    882      1     10     15      0.3629           15.62    
    883      1     10     16      0.3505           15.62    
    884      1     10     17      0.3411           15.62    
    885      1     10     18      0.3353           15.62    
    886      1     10     19      0.3326           15.62    
    887      1     10     20      0.3275           15.62    
    888      1     10     21      0.3154           15.62    
    889      1     10     22      0.3006           15.62    
    890      1     10     23      0.2842           15.62    
    891      1     10     24      0.2709           15.62    
    892      1     10     25      0.2572           15.62    
    893      1     10     26      0.2427           15.62    
    894      1     10     27      0.2289           15.62    
    895      1     10     28      0.2155           15.62    
    896      1     10     29      0.2067           15.62    
    897      1     10     30      0.2028           15.62    
    898      1     10     31      0.2007           15.62    
    899      1     10     32      0.1990           15.62    
    900      1     10     33      0.1952           15.62    
    901      1     10     34      0.1867           15.62    
    902      1     10     35      0.1746           15.62    
    903      1     10     36      0.1550           15.62    
    904      1     10     37      0.1413           15.62    
    905      1     10     38      0.1471           15.62    
    906      1     10     39      0.1633           15.62    
    907      1     10     40      0.1758           15.62    
    908      1     10     41      0.1863           15.62    
    909      1     10     42      0.1935           15.62    
    910      1     10     43      0.1976           15.62    
    911      1     10     44      0.2002           15.62    
    912      1     10     45      0.2017           15.62    
    913      1     10     46      0.2024           15.62    
    914      1     10     47      0.2028           15.62    
    915      1     10     48      0.2048           15.62    
    916      1     10     49      0.2073           15.62    
    917      1     10     50      0.2087           15.62    
    918      1     10     51      0.2090           15.62    
    919      1     10     52      0.2079           15.62    
    920      1     10     53      0.2058           15.62    
    921      1     10     54      0.2026           15.62    
    922      1     10     55      0.1986           15.62    
    923      1     10     56      0.1948           15.62    
    924      1     10     57      0.1904           15.62    
    925      1     10     58      0.1862           15.62    
    926      1     10     59      0.1821           15.62    
    927      1     10     60      0.1775           15.62    
    928      1     10     61      0.1740           15.62    
    929      1     10     62      0.1699           15.62    
    930      1     10     63      0.1649           15.62    
    931      1     10     64      0.1595           15.62    
    932      1     10     65      0.1526           15.62    
    933      1     10     66      0.1451           15.62    
    934      1     10     67      0.1389           15.62    
    935      1     10     68      0.1335           15.62    
    936      1     10     69      0.1289           15.62    
    937      1     10     70      0.1239           15.62    
    938      1     10     71      0.1190           15.62    
    939      1     10     72      0.1141           15.62    
    940      1     10     73      0.1077           15.62    
    941      1     10     74      0.1018           15.62    
    942      1     10     75      0.9769E-01       15.62    
    943      1     10     76      0.9470E-01       15.62    
    944      1     10     77      0.9187E-01       15.62    
    945      1     10     78      0.8740E-01       15.62    
    946      1     10     79      0.8168E-01       15.62    
    947      1     10     80      0.7663E-01       15.62    
    948      1     10     81      0.7193E-01       15.62    
    949      1     10     82      0.6758E-01       15.62    
    950      1     10     83      0.6340E-01       15.62    
    951      1     10     84      0.5770E-01       15.62    
    952      1     10     85      0.5233E-01       15.62    
    953      1     10     86      0.4414E-01       15.62    
    954      1     10     87      0.3412E-01       15.62    
    955      1     10     88      0.2380E-01       15.62    
    956      1     10     89      0.1137E-01       15.62    
    957      1     10     90       0.000           15.62    
    958      1     10     91       0.000           15.62    
    959      1     10     92       0.000           15.62    
    960      1     11      1      0.4964           15.62    
    961      1     11      2      0.4960           15.62    
    962      1     11      3      0.4955           15.62    
    963      1     11      4      0.4946           15.62    
    964      1     11      5      0.4931           15.62    
    965      1     11      6      0.4907           15.62    
    966      1     11      7      0.4860           15.62    
    967      1     11      8      0.4755           15.62    
    968      1     11      9      0.4569           15.62    
    969      1     11     10      0.4316           15.62    
    970      1     11     11      0.4092           15.62    
    971      1     11     12      0.3863           15.62    
    972      1     11     13      0.3678           15.62    
    973      1     11     14      0.3528           15.62    
    974      1     11     15      0.3383           15.62    
    975      1     11     16      0.3288           15.62    
    976      1     11     17      0.3209           15.62    
    977      1     11     18      0.3155           15.62    
    978      1     11     19      0.3116           15.62    
    979      1     11     20      0.3054           15.62    
    980      1     11     21      0.2945           15.62    
    981      1     11     22      0.2823           15.62    
    982      1     11     23      0.2679           15.62    
    983      1     11     24      0.2554           15.62    
    984      1     11     25      0.2421           15.62    
    985      1     11     26      0.2289           15.62    
    986      1     11     27      0.2175           15.62    
    987      1     11     28      0.2064           15.62    
    988      1     11     29      0.1986           15.62    
    989      1     11     30      0.1943           15.62    
    990      1     11     31      0.1917           15.62    
    991      1     11     32      0.1902           15.62    
    992      1     11     33      0.1880           15.62    
    993      1     11     34      0.1833           15.62    
    994      1     11     35      0.1763           15.62    
    995      1     11     36      0.1644           15.62    
    996      1     11     37      0.1563           15.62    
    997      1     11     38      0.1601           15.62    
    998      1     11     39      0.1693           15.62    
    999      1     11     40      0.1763           15.62    
   1000      1     11     41      0.1815           15.62    
   1001      1     11     42      0.1845           15.62    
   1002      1     11     43      0.1858           15.62    
   1003      1     11     44      0.1860           15.62    
   1004      1     11     45      0.1852           15.62    
   1005      1     11     46      0.1835           15.62    
   1006      1     11     47      0.1819           15.62    
   1007      1     11     48      0.1839           15.62    
   1008      1     11     49      0.1876           15.62    
   1009      1     11     50      0.1900           15.62    
   1010      1     11     51      0.1909           15.62    
   1011      1     11     52      0.1907           15.62    
   1012      1     11     53      0.1891           15.62    
   1013      1     11     54      0.1861           15.62    
   1014      1     11     55      0.1827           15.62    
   1015      1     11     56      0.1796           15.62    
   1016      1     11     57      0.1755           15.62    
   1017      1     11     58      0.1713           15.62    
   1018      1     11     59      0.1677           15.62    
   1019      1     11     60      0.1634           15.62    
   1020      1     11     61      0.1600           15.62    
   1021      1     11     62      0.1560           15.62    
   1022      1     11     63      0.1514           15.62    
   1023      1     11     64      0.1463           15.62    
   1024      1     11     65      0.1389           15.62    
   1025      1     11     66      0.1304           15.62    
   1026      1     11     67      0.1237           15.62    
   1027      1     11     68      0.1186           15.62    
   1028      1     11     69      0.1149           15.62    
   1029      1     11     70      0.1109           15.62    
   1030      1     11     71      0.1065           15.62    
   1031      1     11     72      0.1019           15.62    
   1032      1     11     73      0.9568E-01       15.62    
   1033      1     11     74      0.9004E-01       15.62    
   1034      1     11     75      0.8625E-01       15.62    
   1035      1     11     76      0.8396E-01       15.62    
   1036      1     11     77      0.8147E-01       15.62    
   1037      1     11     78      0.7762E-01       15.62    
   1038      1     11     79      0.7270E-01       15.62    
   1039      1     11     80      0.6809E-01       15.62    
   1040      1     11     81      0.6301E-01       15.62    
   1041      1     11     82      0.5786E-01       15.62    
   1042      1     11     83      0.5327E-01       15.62    
   1043      1     11     84      0.4735E-01       15.62    
   1044      1     11     85      0.3999E-01       15.62    
   1045      1     11     86      0.2950E-01       15.62    
   1046      1     11     87      0.1704E-01       15.62    
   1047      1     11     88      0.5363E-02       15.62    
   1048      1     11     89       0.000           15.62    
   1049      1     11     90       0.000           15.62    
   1050      1     12      1      0.5005           15.62    
   1051      1     12      2      0.4995           15.62    
   1052      1     12      3      0.4984           15.62    
   1053      1     12      4      0.4965           15.62    
   1054      1     12      5      0.4937           15.62    
   1055      1     12      6      0.4895           15.62    
   1056      1     12      7      0.4814           15.62    
   1057      1     12      8      0.4671           15.62    
   1058      1     12      9      0.4475           15.62    
   1059      1     12     10      0.4195           15.62    
   1060      1     12     11      0.3936           15.62    
   1061      1     12     12      0.3655           15.62    
   1062      1     12     13      0.3402           15.62    
   1063      1     12     14      0.3244           15.62    
   1064      1     12     15      0.3130           15.62    
   1065      1     12     16      0.3076           15.62    
   1066      1     12     17      0.3017           15.62    
   1067      1     12     18      0.2963           15.62    
   1068      1     12     19      0.2915           15.62    
   1069      1     12     20      0.2843           15.62    
   1070      1     12     21      0.2741           15.62    
   1071      1     12     22      0.2635           15.62    
   1072      1     12     23      0.2507           15.62    
   1073      1     12     24      0.2391           15.62    
   1074      1     12     25      0.2265           15.62    
   1075      1     12     26      0.2146           15.62    
   1076      1     12     27      0.2049           15.62    
   1077      1     12     28      0.1957           15.62    
   1078      1     12     29      0.1895           15.62    
   1079      1     12     30      0.1857           15.62    
   1080      1     12     31      0.1838           15.62    
   1081      1     12     32      0.1838           15.62    
   1082      1     12     33      0.1843           15.62    
   1083      1     12     34      0.1846           15.62    
   1084      1     12     35      0.1850           15.62    
   1085      1     12     36      0.1852           15.62    
   1086      1     12     37      0.1857           15.62    
   1087      1     12     38      0.1843           15.62    
   1088      1     12     39      0.1823           15.62    
   1089      1     12     40      0.1810           15.62    
   1090      1     12     41      0.1797           15.62    
   1091      1     12     42      0.1785           15.62    
   1092      1     12     43      0.1776           15.62    
   1093      1     12     44      0.1758           15.62    
   1094      1     12     45      0.1730           15.62    
   1095      1     12     46      0.1701           15.62    
   1096      1     12     47      0.1677           15.62    
   1097      1     12     48      0.1694           15.62    
   1098      1     12     49      0.1730           15.62    
   1099      1     12     50      0.1752           15.62    
   1100      1     12     51      0.1764           15.62    
   1101      1     12     52      0.1764           15.62    
   1102      1     12     53      0.1743           15.62    
   1103      1     12     54      0.1706           15.62    
   1104      1     12     55      0.1693           15.62    
   1105      1     12     56      0.1667           15.62    
   1106      1     12     57      0.1628           15.62    
   1107      1     12     58      0.1588           15.62    
   1108      1     12     59      0.1551           15.62    
   1109      1     12     60      0.1509           15.62    
   1110      1     12     61      0.1473           15.62    
   1111      1     12     62      0.1432           15.62    
   1112      1     12     63      0.1389           15.62    
   1113      1     12     64      0.1344           15.62    
   1114      1     12     65      0.1265           15.62    
   1115      1     12     66      0.1167           15.62    
   1116      1     12     67      0.1092           15.62    
   1117      1     12     68      0.1054           15.62    
   1118      1     12     69      0.1031           15.62    
   1119      1     12     70      0.1002           15.62    
   1120      1     12     71      0.9652E-01       15.62    
   1121      1     12     72      0.9234E-01       15.62    
   1122      1     12     73      0.8685E-01       15.62    
   1123      1     12     74      0.8189E-01       15.62    
   1124      1     12     75      0.7844E-01       15.62    
   1125      1     12     76      0.7588E-01       15.62    
   1126      1     12     77      0.7315E-01       15.62    
   1127      1     12     78      0.6915E-01       15.62    
   1128      1     12     79      0.6400E-01       15.62    
   1129      1     12     80      0.5893E-01       15.62    
   1130      1     12     81      0.5325E-01       15.62    
   1131      1     12     82      0.4783E-01       15.62    
   1132      1     12     83      0.4289E-01       15.62    
   1133      1     12     84      0.3546E-01       15.62    
   1134      1     12     85      0.2601E-01       15.62    
   1135      1     12     86      0.1418E-01       15.62    
   1136      1     12     87      0.9250E-03       15.62    
   1137      1     12     88       0.000           15.62    
   1138      1     12     89       0.000           15.62    
   1139      1     13      1      0.5044           15.62    
   1140      1     13      2      0.5024           15.62    
   1141      1     13      3      0.5004           15.62    
   1142      1     13      4      0.4974           15.62    
   1143      1     13      5      0.4931           15.62    
   1144      1     13      6      0.4871           15.62    
   1145      1     13      7      0.4765           15.62    
   1146      1     13      8      0.4596           15.62    
   1147      1     13      9      0.4382           15.62    
   1148      1     13     10      0.4073           15.62    
   1149      1     13     11      0.3781           15.62    
   1150      1     13     12      0.3455           15.62    
   1151      1     13     13      0.3149           15.62    
   1152      1     13     14      0.2984           15.62    
   1153      1     13     15      0.2888           15.62    
   1154      1     13     16      0.2856           15.62    
   1155      1     13     17      0.2810           15.62    
   1156      1     13     18      0.2750           15.62    
   1157      1     13     19      0.2690           15.62    
   1158      1     13     20      0.2607           15.62    
   1159      1     13     21      0.2508           15.62    
   1160      1     13     22      0.2413           15.62    
   1161      1     13     23      0.2297           15.62    
   1162      1     13     24      0.2189           15.62    
   1163      1     13     25      0.2072           15.62    
   1164      1     13     26      0.1967           15.62    
   1165      1     13     27      0.1884           15.62    
   1166      1     13     28      0.1810           15.62    
   1167      1     13     29      0.1766           15.62    
   1168      1     13     30      0.1743           15.62    
   1169      1     13     31      0.1738           15.62    
   1170      1     13     32      0.1755           15.62    
   1171      1     13     33      0.1799           15.62    
   1172      1     13     34      0.1864           15.62    
   1173      1     13     35      0.1954           15.62    
   1174      1     13     36      0.2086           15.62    
   1175      1     13     37      0.2184           15.62    
   1176      1     13     38      0.2114           15.62    
   1177      1     13     39      0.1974           15.62    
   1178      1     13     40      0.1865           15.62    
   1179      1     13     41      0.1780           15.62    
   1180      1     13     42      0.1723           15.62    
   1181      1     13     43      0.1693           15.62    
   1182      1     13     44      0.1655           15.62    
   1183      1     13     45      0.1614           15.62    
   1184      1     13     46      0.1585           15.62    
   1185      1     13     47      0.1564           15.62    
   1186      1     13     48      0.1572           15.62    
   1187      1     13     49      0.1594           15.62    
   1188      1     13     50      0.1607           15.62    
   1189      1     13     51      0.1615           15.62    
   1190      1     13     52      0.1604           15.62    
   1191      1     13     53      0.1583           15.62    
   1192      1     13     54      0.1563           15.62    
   1193      1     13     55      0.1549           15.62    
   1194      1     13     56      0.1521           15.62    
   1195      1     13     57      0.1480           15.62    
   1196      1     13     58      0.1438           15.62    
   1197      1     13     59      0.1399           15.62    
   1198      1     13     60      0.1354           15.62    
   1199      1     13     61      0.1316           15.62    
   1200      1     13     62      0.1272           15.62    
   1201      1     13     63      0.1240           15.62    
   1202      1     13     64      0.1198           15.62    
   1203      1     13     65      0.1122           15.62    
   1204      1     13     66      0.1019           15.62    
   1205      1     13     67      0.9317E-01       15.62    
   1206      1     13     68      0.9147E-01       15.62    
   1207      1     13     69      0.9093E-01       15.62    
   1208      1     13     70      0.8931E-01       15.62    
   1209      1     13     71      0.8636E-01       15.62    
   1210      1     13     72      0.8272E-01       15.62    
   1211      1     13     73      0.7806E-01       15.62    
   1212      1     13     74      0.7389E-01       15.62    
   1213      1     13     75      0.7073E-01       15.62    
   1214      1     13     76      0.6702E-01       15.62    
   1215      1     13     77      0.6354E-01       15.62    
   1216      1     13     78      0.5881E-01       15.62    
   1217      1     13     79      0.5279E-01       15.62    
   1218      1     13     80      0.4697E-01       15.62    
   1219      1     13     81      0.3993E-01       15.62    
   1220      1     13     82      0.3310E-01       15.62    
   1221      1     13     83      0.2724E-01       15.62    
   1222      1     13     84      0.1894E-01       15.62    
   1223      1     13     85      0.7591E-02       15.62    
   1224      1     13     86       0.000           15.62    
   1225      1     13     87       0.000           15.62    
   1226      1     14      1      0.5075           15.62    
   1227      1     14      2      0.5045           15.62    
   1228      1     14      3      0.5015           15.62    
   1229      1     14      4      0.4975           15.62    
   1230      1     14      5      0.4922           15.62    
   1231      1     14      6      0.4855           15.62    
   1232      1     14      7      0.4742           15.62    
   1233      1     14      8      0.4567           15.62    
   1234      1     14      9      0.4344           15.62    
   1235      1     14     10      0.4021           15.62    
   1236      1     14     11      0.3712           15.62    
   1237      1     14     12      0.3364           15.62    
   1238      1     14     13      0.3056           15.62    
   1239      1     14     14      0.2873           15.62    
   1240      1     14     15      0.2750           15.62    
   1241      1     14     16      0.2695           15.62    
   1242      1     14     17      0.2634           15.62    
   1243      1     14     18      0.2561           15.62    
   1244      1     14     19      0.2487           15.62    
   1245      1     14     20      0.2391           15.62    
   1246      1     14     21      0.2288           15.62    
   1247      1     14     22      0.2196           15.62    
   1248      1     14     23      0.2086           15.62    
   1249      1     14     24      0.1984           15.62    
   1250      1     14     25      0.1874           15.62    
   1251      1     14     26      0.1778           15.62    
   1252      1     14     27      0.1704           15.62    
   1253      1     14     28      0.1641           15.62    
   1254      1     14     29      0.1614           15.62    
   1255      1     14     30      0.1607           15.62    
   1256      1     14     31      0.1615           15.62    
   1257      1     14     32      0.1645           15.62    
   1258      1     14     33      0.1713           15.62    
   1259      1     14     34      0.1816           15.62    
   1260      1     14     35      0.1949           15.62    
   1261      1     14     36      0.2137           15.62    
   1262      1     14     37      0.2274           15.62    
   1263      1     14     38      0.2180           15.62    
   1264      1     14     39      0.1994           15.62    
   1265      1     14     40      0.1844           15.62    
   1266      1     14     41      0.1727           15.62    
   1267      1     14     42      0.1647           15.62    
   1268      1     14     43      0.1597           15.62    
   1269      1     14     44      0.1550           15.62    
   1270      1     14     45      0.1516           15.62    
   1271      1     14     46      0.1502           15.62    
   1272      1     14     47      0.1491           15.62    
   1273      1     14     48      0.1487           15.62    
   1274      1     14     49      0.1486           15.62    
   1275      1     14     50      0.1485           15.62    
   1276      1     14     51      0.1477           15.62    
   1277      1     14     52      0.1458           15.62    
   1278      1     14     53      0.1444           15.62    
   1279      1     14     54      0.1436           15.62    
   1280      1     14     55      0.1409           15.62    
   1281      1     14     56      0.1375           15.62    
   1282      1     14     57      0.1331           15.62    
   1283      1     14     58      0.1289           15.62    
   1284      1     14     59      0.1246           15.62    
   1285      1     14     60      0.1194           15.62    
   1286      1     14     61      0.1155           15.62    
   1287      1     14     62      0.1122           15.62    
   1288      1     14     63      0.1099           15.62    
   1289      1     14     64      0.1065           15.62    
   1290      1     14     65      0.1005           15.62    
   1291      1     14     66      0.9264E-01       15.62    
   1292      1     14     67      0.8619E-01       15.62    
   1293      1     14     68      0.8330E-01       15.62    
   1294      1     14     69      0.8193E-01       15.62    
   1295      1     14     70      0.8018E-01       15.62    
   1296      1     14     71      0.7730E-01       15.62    
   1297      1     14     72      0.7382E-01       15.62    
   1298      1     14     73      0.6933E-01       15.62    
   1299      1     14     74      0.6537E-01       15.62    
   1300      1     14     75      0.6226E-01       15.62    
   1301      1     14     76      0.5722E-01       15.62    
   1302      1     14     77      0.5278E-01       15.62    
   1303      1     14     78      0.4708E-01       15.62    
   1304      1     14     79      0.3986E-01       15.62    
   1305      1     14     80      0.3278E-01       15.62    
   1306      1     14     81      0.2332E-01       15.62    
   1307      1     14     82      0.1378E-01       15.62    
   1308      1     14     83      0.6767E-02       15.62    
   1309      1     14     84       0.000           15.62    
   1310      1     14     85       0.000           15.62    
   1311      1     14     86       0.000           15.62    
   1312      1     15      1      0.5097           15.62    
   1313      1     15      2      0.5056           15.62    
   1314      1     15      3      0.5017           15.62    
   1315      1     15      4      0.4968           15.62    
   1316      1     15      5      0.4910           15.62    
   1317      1     15      6      0.4845           15.62    
   1318      1     15      7      0.4742           15.62    
   1319      1     15      8      0.4581           15.62    
   1320      1     15      9      0.4357           15.62    
   1321      1     15     10      0.4026           15.62    
   1322      1     15     11      0.3704           15.62    
   1323      1     15     12      0.3344           15.62    
   1324      1     15     13      0.3034           15.62    
   1325      1     15     14      0.2839           15.62    
   1326      1     15     15      0.2688           15.62    
   1327      1     15     16      0.2604           15.62    
   1328      1     15     17      0.2518           15.62    
   1329      1     15     18      0.2425           15.62    
   1330      1     15     19      0.2338           15.62    
   1331      1     15     20      0.2228           15.62    
   1332      1     15     21      0.2115           15.62    
   1333      1     15     22      0.2016           15.62    
   1334      1     15     23      0.1904           15.62    
   1335      1     15     24      0.1804           15.62    
   1336      1     15     25      0.1697           15.62    
   1337      1     15     26      0.1606           15.62    
   1338      1     15     27      0.1537           15.62    
   1339      1     15     28      0.1482           15.62    
   1340      1     15     29      0.1468           15.62    
   1341      1     15     30      0.1467           15.62    
   1342      1     15     31      0.1483           15.62    
   1343      1     15     32      0.1522           15.62    
   1344      1     15     33      0.1601           15.62    
   1345      1     15     34      0.1709           15.62    
   1346      1     15     35      0.1831           15.62    
   1347      1     15     36      0.1983           15.62    
   1348      1     15     37      0.2078           15.62    
   1349      1     15     38      0.2007           15.62    
   1350      1     15     39      0.1863           15.62    
   1351      1     15     40      0.1735           15.62    
   1352      1     15     41      0.1624           15.62    
   1353      1     15     42      0.1549           15.62    
   1354      1     15     43      0.1497           15.62    
   1355      1     15     44      0.1454           15.62    
   1356      1     15     45      0.1435           15.62    
   1357      1     15     46      0.1436           15.62    
   1358      1     15     47      0.1428           15.62    
   1359      1     15     48      0.1416           15.62    
   1360      1     15     49      0.1399           15.62    
   1361      1     15     50      0.1384           15.62    
   1362      1     15     51      0.1357           15.62    
   1363      1     15     52      0.1348           15.62    
   1364      1     15     53      0.1345           15.62    
   1365      1     15     54      0.1321           15.62    
   1366      1     15     55      0.1286           15.62    
   1367      1     15     56      0.1247           15.62    
   1368      1     15     57      0.1202           15.62    
   1369      1     15     58      0.1164           15.62    
   1370      1     15     59      0.1120           15.62    
   1371      1     15     60      0.1064           15.62    
   1372      1     15     61      0.1027           15.62    
   1373      1     15     62      0.1004           15.62    
   1374      1     15     63      0.9913E-01       15.62    
   1375      1     15     64      0.9672E-01       15.62    
   1376      1     15     65      0.9227E-01       15.62    
   1377      1     15     66      0.8654E-01       15.62    
   1378      1     15     67      0.8177E-01       15.62    
   1379      1     15     68      0.7807E-01       15.62    
   1380      1     15     69      0.7570E-01       15.62    
   1381      1     15     70      0.7318E-01       15.62    
   1382      1     15     71      0.6998E-01       15.62    
   1383      1     15     72      0.6634E-01       15.62    
   1384      1     15     73      0.6178E-01       15.62    
   1385      1     15     74      0.5740E-01       15.62    
   1386      1     15     75      0.5345E-01       15.62    
   1387      1     15     76      0.4765E-01       15.62    
   1388      1     15     77      0.4245E-01       15.62    
   1389      1     15     78      0.3577E-01       15.62    
   1390      1     15     79      0.2695E-01       15.62    
   1391      1     15     80      0.1672E-01       15.62    
   1392      1     15     81      0.4409E-02       15.62    
   1393      1     15     82       0.000           15.62    
   1394      1     15     83       0.000           15.62    
   1395      1     15     84       0.000           15.62    
   1396      1     16      1      0.5117           15.62    
   1397      1     16      2      0.5062           15.62    
   1398      1     16      3      0.5011           15.62    
   1399      1     16      4      0.4951           15.62    
   1400      1     16      5      0.4888           15.62    
   1401      1     16      6      0.4828           15.62    
   1402      1     16      7      0.4744           15.62    
   1403      1     16      8      0.4616           15.62    
   1404      1     16      9      0.4391           15.62    
   1405      1     16     10      0.4047           15.62    
   1406      1     16     11      0.3710           15.62    
   1407      1     16     12      0.3335           15.62    
   1408      1     16     13      0.3011           15.62    
   1409      1     16     14      0.2806           15.62    
   1410      1     16     15      0.2641           15.62    
   1411      1     16     16      0.2535           15.62    
   1412      1     16     17      0.2422           15.62    
   1413      1     16     18      0.2306           15.62    
   1414      1     16     19      0.2201           15.62    
   1415      1     16     20      0.2073           15.62    
   1416      1     16     21      0.1940           15.62    
   1417      1     16     22      0.1829           15.62    
   1418      1     16     23      0.1706           15.62    
   1419      1     16     24      0.1597           15.62    
   1420      1     16     25      0.1484           15.62    
   1421      1     16     26      0.1396           15.62    
   1422      1     16     27      0.1334           15.62    
   1423      1     16     28      0.1290           15.62    
   1424      1     16     29      0.1286           15.62    
   1425      1     16     30      0.1287           15.62    
   1426      1     16     31      0.1310           15.62    
   1427      1     16     32      0.1358           15.62    
   1428      1     16     33      0.1437           15.62    
   1429      1     16     34      0.1528           15.62    
   1430      1     16     35      0.1609           15.62    
   1431      1     16     36      0.1686           15.62    
   1432      1     16     37      0.1713           15.62    
   1433      1     16     38      0.1682           15.62    
   1434      1     16     39      0.1613           15.62    
   1435      1     16     40      0.1537           15.62    
   1436      1     16     41      0.1457           15.62    
   1437      1     16     42      0.1414           15.62    
   1438      1     16     43      0.1373           15.62    
   1439      1     16     44      0.1339           15.62    
   1440      1     16     45      0.1332           15.62    
   1441      1     16     46      0.1338           15.62    
   1442      1     16     47      0.1335           15.62    
   1443      1     16     48      0.1321           15.62    
   1444      1     16     49      0.1293           15.62    
   1445      1     16     50      0.1260           15.62    
   1446      1     16     51      0.1247           15.62    
   1447      1     16     52      0.1238           15.62    
   1448      1     16     53      0.1221           15.62    
   1449      1     16     54      0.1190           15.62    
   1450      1     16     55      0.1149           15.62    
   1451      1     16     56      0.1106           15.62    
   1452      1     16     57      0.1062           15.62    
   1453      1     16     58      0.1032           15.62    
   1454      1     16     59      0.9961E-01       15.62    
   1455      1     16     60      0.9462E-01       15.62    
   1456      1     16     61      0.9123E-01       15.62    
   1457      1     16     62      0.8954E-01       15.62    
   1458      1     16     63      0.8927E-01       15.62    
   1459      1     16     64      0.8770E-01       15.62    
   1460      1     16     65      0.8443E-01       15.62    
   1461      1     16     66      0.8000E-01       15.62    
   1462      1     16     67      0.7607E-01       15.62    
   1463      1     16     68      0.7199E-01       15.62    
   1464      1     16     69      0.6876E-01       15.62    
   1465      1     16     70      0.6524E-01       15.62    
   1466      1     16     71      0.6114E-01       15.62    
   1467      1     16     72      0.5699E-01       15.62    
   1468      1     16     73      0.5135E-01       15.62    
   1469      1     16     74      0.4537E-01       15.62    
   1470      1     16     75      0.4001E-01       15.62    
   1471      1     16     76      0.3291E-01       15.62    
   1472      1     16     77      0.2612E-01       15.62    
   1473      1     16     78      0.1827E-01       15.62    
   1474      1     16     79      0.9393E-02       15.62    
   1475      1     16     80       0.000           15.62    
   1476      1     16     81       0.000           15.62    
   1477      1     16     82       0.000           15.62    
   1478      1     16     95      0.8056E-02       15.62    
   1479      1     16     96      0.1391E-01       15.62    
   1480      1     16     97      0.1903E-01       15.62    
   1481      1     16     98      0.2325E-01       15.62    
   1482      1     16     99      0.2518E-01       15.62    
   1483      1     16    100      0.2259E-01       15.62    
   1484      1     17      1      0.5132           15.62    
   1485      1     17      2      0.5061           15.62    
   1486      1     17      3      0.4996           15.62    
   1487      1     17      4      0.4924           15.62    
   1488      1     17      5      0.4856           15.62    
   1489      1     17      6      0.4796           15.62    
   1490      1     17      7      0.4724           15.62    
   1491      1     17      8      0.4619           15.62    
   1492      1     17      9      0.4397           15.62    
   1493      1     17     10      0.4053           15.62    
   1494      1     17     11      0.3715           15.62    
   1495      1     17     12      0.3337           15.62    
   1496      1     17     13      0.3002           15.62    
   1497      1     17     14      0.2792           15.62    
   1498      1     17     15      0.2623           15.62    
   1499      1     17     16      0.2502           15.62    
   1500      1     17     17      0.2367           15.62    
   1501      1     17     18      0.2231           15.62    
   1502      1     17     19      0.2108           15.62    
   1503      1     17     20      0.1962           15.62    
   1504      1     17     21      0.1812           15.62    
   1505      1     17     22      0.1685           15.62    
   1506      1     17     23      0.1543           15.62    
   1507      1     17     24      0.1419           15.62    
   1508      1     17     25      0.1295           15.62    
   1509      1     17     26      0.1200           15.62    
   1510      1     17     27      0.1139           15.62    
   1511      1     17     28      0.1103           15.62    
   1512      1     17     29      0.1107           15.62    
   1513      1     17     30      0.1120           15.62    
   1514      1     17     31      0.1153           15.62    
   1515      1     17     32      0.1203           15.62    
   1516      1     17     33      0.1270           15.62    
   1517      1     17     34      0.1337           15.62    
   1518      1     17     35      0.1382           15.62    
   1519      1     17     36      0.1404           15.62    
   1520      1     17     37      0.1388           15.62    
   1521      1     17     38      0.1377           15.62    
   1522      1     17     39      0.1360           15.62    
   1523      1     17     40      0.1331           15.62    
   1524      1     17     41      0.1291           15.62    
   1525      1     17     42      0.1276           15.62    
   1526      1     17     43      0.1251           15.62    
   1527      1     17     44      0.1228           15.62    
   1528      1     17     45      0.1228           15.62    
   1529      1     17     46      0.1235           15.62    
   1530      1     17     47      0.1234           15.62    
   1531      1     17     48      0.1220           15.62    
   1532      1     17     49      0.1190           15.62    
   1533      1     17     50      0.1160           15.62    
   1534      1     17     51      0.1151           15.62    
   1535      1     17     52      0.1138           15.62    
   1536      1     17     53      0.1116           15.62    
   1537      1     17     54      0.1082           15.62    
   1538      1     17     55      0.1036           15.62    
   1539      1     17     56      0.9933E-01       15.62    
   1540      1     17     57      0.9552E-01       15.62    
   1541      1     17     58      0.9389E-01       15.62    
   1542      1     17     59      0.9159E-01       15.62    
   1543      1     17     60      0.8807E-01       15.62    
   1544      1     17     61      0.8546E-01       15.62    
   1545      1     17     62      0.8386E-01       15.62    
   1546      1     17     63      0.8290E-01       15.62    
   1547      1     17     64      0.8115E-01       15.62    
   1548      1     17     65      0.7799E-01       15.62    
   1549      1     17     66      0.7371E-01       15.62    
   1550      1     17     67      0.6994E-01       15.62    
   1551      1     17     68      0.6543E-01       15.62    
   1552      1     17     69      0.6161E-01       15.62    
   1553      1     17     70      0.5726E-01       15.62    
   1554      1     17     71      0.5201E-01       15.62    
   1555      1     17     72      0.4704E-01       15.62    
   1556      1     17     73      0.3964E-01       15.62    
   1557      1     17     74      0.3137E-01       15.62    
   1558      1     17     75      0.2447E-01       15.62    
   1559      1     17     76      0.1673E-01       15.62    
   1560      1     17     77      0.7928E-02       15.62    
   1561      1     17     78       0.000           15.62    
   1562      1     17     79       0.000           15.62    
   1563      1     17     80       0.000           15.62    
   1564      1     17     94      0.2199E-01       15.62    
   1565      1     17     95      0.3200E-01       15.62    
   1566      1     17     96      0.3853E-01       15.62    
   1567      1     17     97      0.4280E-01       15.62    
   1568      1     17     98      0.4569E-01       15.62    
   1569      1     17     99      0.4825E-01       15.62    
   1570      1     17    100      0.4855E-01       15.62    
   1571      1     18      1      0.5150           15.62    
   1572      1     18      2      0.5057           15.62    
   1573      1     18      3      0.4971           15.62    
   1574      1     18      4      0.4879           15.62    
   1575      1     18      5      0.4798           15.62    
   1576      1     18      6      0.4730           15.62    
   1577      1     18      7      0.4644           15.62    
   1578      1     18      8      0.4516           15.62    
   1579      1     18      9      0.4319           15.62    
   1580      1     18     10      0.4020           15.62    
   1581      1     18     11      0.3718           15.62    
   1582      1     18     12      0.3362           15.62    
   1583      1     18     13      0.3032           15.62    
   1584      1     18     14      0.2818           15.62    
   1585      1     18     15      0.2638           15.62    
   1586      1     18     16      0.2494           15.62    
   1587      1     18     17      0.2333           15.62    
   1588      1     18     18      0.2170           15.62    
   1589      1     18     19      0.2027           15.62    
   1590      1     18     20      0.1862           15.62    
   1591      1     18     21      0.1691           15.62    
   1592      1     18     22      0.1541           15.62    
   1593      1     18     23      0.1371           15.62    
   1594      1     18     24      0.1224           15.62    
   1595      1     18     25      0.1077           15.62    
   1596      1     18     26      0.9683E-01       15.62    
   1597      1     18     27      0.9037E-01       15.62    
   1598      1     18     28      0.8722E-01       15.62    
   1599      1     18     29      0.8822E-01       15.62    
   1600      1     18     30      0.9017E-01       15.62    
   1601      1     18     31      0.9450E-01       15.62    
   1602      1     18     32      0.1004           15.62    
   1603      1     18     33      0.1067           15.62    
   1604      1     18     34      0.1114           15.62    
   1605      1     18     35      0.1126           15.62    
   1606      1     18     36      0.1102           15.62    
   1607      1     18     37      0.1052           15.62    
   1608      1     18     38      0.1062           15.62    
   1609      1     18     39      0.1093           15.62    
   1610      1     18     40      0.1112           15.62    
   1611      1     18     41      0.1112           15.62    
   1612      1     18     42      0.1096           15.62    
   1613      1     18     43      0.1083           15.62    
   1614      1     18     44      0.1079           15.62    
   1615      1     18     45      0.1090           15.62    
   1616      1     18     46      0.1104           15.62    
   1617      1     18     47      0.1104           15.62    
   1618      1     18     48      0.1092           15.62    
   1619      1     18     49      0.1066           15.62    
   1620      1     18     50      0.1047           15.62    
   1621      1     18     51      0.1038           15.62    
   1622      1     18     52      0.1026           15.62    
   1623      1     18     53      0.1007           15.62    
   1624      1     18     54      0.9736E-01       15.62    
   1625      1     18     55      0.9312E-01       15.62    
   1626      1     18     56      0.8958E-01       15.62    
   1627      1     18     57      0.8681E-01       15.62    
   1628      1     18     58      0.8607E-01       15.62    
   1629      1     18     59      0.8470E-01       15.62    
   1630      1     18     60      0.8208E-01       15.62    
   1631      1     18     61      0.7980E-01       15.62    
   1632      1     18     62      0.7801E-01       15.62    
   1633      1     18     63      0.7614E-01       15.62    
   1634      1     18     64      0.7453E-01       15.62    
   1635      1     18     65      0.7158E-01       15.62    
   1636      1     18     66      0.6652E-01       15.62    
   1637      1     18     67      0.6196E-01       15.62    
   1638      1     18     68      0.5659E-01       15.62    
   1639      1     18     69      0.5138E-01       15.62    
   1640      1     18     70      0.4482E-01       15.62    
   1641      1     18     71      0.3818E-01       15.62    
   1642      1     18     72      0.3179E-01       15.62    
   1643      1     18     73      0.2190E-01       15.62    
   1644      1     18     74      0.1020E-01       15.62    
   1645      1     18     75      0.1296E-02       15.62    
   1646      1     18     76       0.000           15.62    
   1647      1     18     77       0.000           15.62    
   1648      1     18     93      0.1274E-01       15.62    
   1649      1     18     94      0.3358E-01       15.62    
   1650      1     18     95      0.4648E-01       15.62    
   1651      1     18     96      0.5397E-01       15.62    
   1652      1     18     97      0.5858E-01       15.62    
   1653      1     18     98      0.6146E-01       15.62    
   1654      1     18     99      0.6370E-01       15.62    
   1655      1     18    100      0.6368E-01       15.62    
   1656      1     19      1      0.5176           15.62    
   1657      1     19      2      0.5056           15.62    
   1658      1     19      3      0.4941           15.62    
   1659      1     19      4      0.4822           15.62    
   1660      1     19      5      0.4725           15.62    
   1661      1     19      6      0.4650           15.62    
   1662      1     19      7      0.4553           15.62    
   1663      1     19      8      0.4415           15.62    
   1664      1     19      9      0.4239           15.62    
   1665      1     19     10      0.3986           15.62    
   1666      1     19     11      0.3731           15.62    
   1667      1     19     12      0.3424           15.62    
   1668      1     19     13      0.3132           15.62    
   1669      1     19     14      0.2912           15.62    
   1670      1     19     15      0.2694           15.62    
   1671      1     19     16      0.2516           15.62    
   1672      1     19     17      0.2320           15.62    
   1673      1     19     18      0.2130           15.62    
   1674      1     19     19      0.1969           15.62    
   1675      1     19     20      0.1786           15.62    
   1676      1     19     21      0.1591           15.62    
   1677      1     19     22      0.1416           15.62    
   1678      1     19     23      0.1216           15.62    
   1679      1     19     24      0.1042           15.62    
   1680      1     19     25      0.8605E-01       15.62    
   1681      1     19     26      0.7284E-01       15.62    
   1682      1     19     27      0.6629E-01       15.62    
   1683      1     19     28      0.6528E-01       15.62    
   1684      1     19     29      0.6610E-01       15.62    
   1685      1     19     30      0.6813E-01       15.62    
   1686      1     19     31      0.7319E-01       15.62    
   1687      1     19     32      0.8027E-01       15.62    
   1688      1     19     33      0.8782E-01       15.62    
   1689      1     19     34      0.9142E-01       15.62    
   1690      1     19     35      0.9206E-01       15.62    
   1691      1     19     36      0.9011E-01       15.62    
   1692      1     19     37      0.8604E-01       15.62    
   1693      1     19     38      0.8684E-01       15.62    
   1694      1     19     39      0.9017E-01       15.62    
   1695      1     19     40      0.9291E-01       15.62    
   1696      1     19     41      0.9369E-01       15.62    
   1697      1     19     42      0.9127E-01       15.62    
   1698      1     19     43      0.9041E-01       15.62    
   1699      1     19     44      0.9178E-01       15.62    
   1700      1     19     45      0.9528E-01       15.62    
   1701      1     19     46      0.9760E-01       15.62    
   1702      1     19     47      0.9823E-01       15.62    
   1703      1     19     48      0.9748E-01       15.62    
   1704      1     19     49      0.9529E-01       15.62    
   1705      1     19     50      0.9284E-01       15.62    
   1706      1     19     51      0.9261E-01       15.62    
   1707      1     19     52      0.9243E-01       15.62    
   1708      1     19     53      0.9105E-01       15.62    
   1709      1     19     54      0.8836E-01       15.62    
   1710      1     19     55      0.8527E-01       15.62    
   1711      1     19     56      0.8289E-01       15.62    
   1712      1     19     57      0.8097E-01       15.62    
   1713      1     19     58      0.7977E-01       15.62    
   1714      1     19     59      0.7843E-01       15.62    
   1715      1     19     60      0.7613E-01       15.62    
   1716      1     19     61      0.7399E-01       15.62    
   1717      1     19     62      0.7179E-01       15.62    
   1718      1     19     63      0.6910E-01       15.62    
   1719      1     19     64      0.6662E-01       15.62    
   1720      1     19     65      0.6244E-01       15.62    
   1721      1     19     66      0.5576E-01       15.62    
   1722      1     19     67      0.4981E-01       15.62    
   1723      1     19     68      0.4356E-01       15.62    
   1724      1     19     69      0.3713E-01       15.62    
   1725      1     19     70      0.2787E-01       15.62    
   1726      1     19     71      0.1825E-01       15.62    
   1727      1     19     72      0.1143E-01       15.62    
   1728      1     19     73       0.000           15.62    
   1729      1     19     74       0.000           15.62    
   1730      1     19     75       0.000           15.62    
   1731      1     19     91       0.000           15.62    
   1732      1     19     92      0.6593E-02       15.62    
   1733      1     19     93      0.2592E-01       15.62    
   1734      1     19     94      0.4330E-01       15.62    
   1735      1     19     95      0.5508E-01       15.62    
   1736      1     19     96      0.6197E-01       15.62    
   1737      1     19     97      0.6685E-01       15.62    
   1738      1     19     98      0.6967E-01       15.62    
   1739      1     19     99      0.7151E-01       15.62    
   1740      1     19    100      0.7148E-01       15.62    
   1741      1     20      1      0.5212           15.62    
   1742      1     20      2      0.5070           15.62    
   1743      1     20      3      0.4923           15.62    
   1744      1     20      4      0.4771           15.62    
   1745      1     20      5      0.4665           15.62    
   1746      1     20      6      0.4589           15.62    
   1747      1     20      7      0.4486           15.62    
   1748      1     20      8      0.4348           15.62    
   1749      1     20      9      0.4189           15.62    
   1750      1     20     10      0.3970           15.62    
   1751      1     20     11      0.3752           15.62    
   1752      1     20     12      0.3487           15.62    
   1753      1     20     13      0.3223           15.62    
   1754      1     20     14      0.3000           15.62    
   1755      1     20     15      0.2755           15.62    
   1756      1     20     16      0.2546           15.62    
   1757      1     20     17      0.2317           15.62    
   1758      1     20     18      0.2100           15.62    
   1759      1     20     19      0.1921           15.62    
   1760      1     20     20      0.1726           15.62    
   1761      1     20     21      0.1514           15.62    
   1762      1     20     22      0.1320           15.62    
   1763      1     20     23      0.1095           15.62    
   1764      1     20     24      0.8968E-01       15.62    
   1765      1     20     25      0.6781E-01       15.62    
   1766      1     20     26      0.5087E-01       15.62    
   1767      1     20     27      0.4460E-01       15.62    
   1768      1     20     28      0.4977E-01       15.62    
   1769      1     20     29      0.4771E-01       15.62    
   1770      1     20     30      0.4847E-01       15.62    
   1771      1     20     31      0.5406E-01       15.62    
   1772      1     20     32      0.6286E-01       15.62    
   1773      1     20     33      0.7250E-01       15.62    
   1774      1     20     34      0.7727E-01       15.62    
   1775      1     20     35      0.7922E-01       15.62    
   1776      1     20     36      0.7916E-01       15.62    
   1777      1     20     37      0.7646E-01       15.62    
   1778      1     20     38      0.7621E-01       15.62    
   1779      1     20     39      0.7841E-01       15.62    
   1780      1     20     40      0.8075E-01       15.62    
   1781      1     20     41      0.8079E-01       15.62    
   1782      1     20     42      0.7755E-01       15.62    
   1783      1     20     43      0.7669E-01       15.62    
   1784      1     20     44      0.7909E-01       15.62    
   1785      1     20     45      0.8425E-01       15.62    
   1786      1     20     46      0.8734E-01       15.62    
   1787      1     20     47      0.8883E-01       15.62    
   1788      1     20     48      0.8877E-01       15.62    
   1789      1     20     49      0.8711E-01       15.62    
   1790      1     20     50      0.8512E-01       15.62    
   1791      1     20     51      0.8471E-01       15.62    
   1792      1     20     52      0.8441E-01       15.62    
   1793      1     20     53      0.8326E-01       15.62    
   1794      1     20     54      0.8101E-01       15.62    
   1795      1     20     55      0.7882E-01       15.62    
   1796      1     20     56      0.7735E-01       15.62    
   1797      1     20     57      0.7594E-01       15.62    
   1798      1     20     58      0.7366E-01       15.62    
   1799      1     20     59      0.7195E-01       15.62    
   1800      1     20     60      0.6980E-01       15.62    
   1801      1     20     61      0.6777E-01       15.62    
   1802      1     20     62      0.6493E-01       15.62    
   1803      1     20     63      0.6146E-01       15.62    
   1804      1     20     64      0.5748E-01       15.62    
   1805      1     20     65      0.5119E-01       15.62    
   1806      1     20     66      0.4242E-01       15.62    
   1807      1     20     67      0.3469E-01       15.62    
   1808      1     20     68      0.2779E-01       15.62    
   1809      1     20     69      0.2071E-01       15.62    
   1810      1     20     70      0.9427E-02       15.62    
   1811      1     20     71       0.000           15.62    
   1812      1     20     72       0.000           15.62    
   1813      1     20     73       0.000           15.62    
   1814      1     20     89       0.000           15.62    
   1815      1     20     90       0.000           15.62    
   1816      1     20     91      0.7465E-02       15.62    
   1817      1     20     92      0.2308E-01       15.62    
   1818      1     20     93      0.3655E-01       15.62    
   1819      1     20     94      0.4974E-01       15.62    
   1820      1     20     95      0.5962E-01       15.62    
   1821      1     20     96      0.6572E-01       15.62    
   1822      1     20     97      0.7040E-01       15.62    
   1823      1     20     98      0.7301E-01       15.62    
   1824      1     20     99      0.7457E-01       15.62    
   1825      1     20    100      0.7499E-01       15.62    
   1826      1     21      1      0.5283           15.62    
   1827      1     21      2      0.5123           15.62    
   1828      1     21      3      0.4940           15.62    
   1829      1     21      4      0.4748           15.62    
   1830      1     21      5      0.4628           15.62    
   1831      1     21      6      0.4548           15.62    
   1832      1     21      7      0.4436           15.62    
   1833      1     21      8      0.4298           15.62    
   1834      1     21      9      0.4154           15.62    
   1835      1     21     10      0.3965           15.62    
   1836      1     21     11      0.3781           15.62    
   1837      1     21     12      0.3558           15.62    
   1838      1     21     13      0.3322           15.62    
   1839      1     21     14      0.3099           15.62    
   1840      1     21     15      0.2825           15.62    
   1841      1     21     16      0.2579           15.62    
   1842      1     21     17      0.2310           15.62    
   1843      1     21     18      0.2059           15.62    
   1844      1     21     19      0.1857           15.62    
   1845      1     21     20      0.1643           15.62    
   1846      1     21     21      0.1420           15.62    
   1847      1     21     22      0.1219           15.62    
   1848      1     21     23      0.9860E-01       15.62    
   1849      1     21     24      0.7769E-01       15.62    
   1850      1     21     25      0.5323E-01       15.62    
   1851      1     21     26      0.2662E-01       15.62    
   1852      1     21     27      0.1951E-01       15.62    
   1853      1     21     28      0.4433E-01       15.62    
   1854      1     21     29      0.2549E-01       15.62    
   1855      1     21     30      0.2099E-01       15.62    
   1856      1     21     31      0.2971E-01       15.62    
   1857      1     21     32      0.4322E-01       15.62    
   1858      1     21     33      0.5650E-01       15.62    
   1859      1     21     34      0.6593E-01       15.62    
   1860      1     21     35      0.7071E-01       15.62    
   1861      1     21     36      0.7173E-01       15.62    
   1862      1     21     37      0.6967E-01       15.62    
   1863      1     21     38      0.6856E-01       15.62    
   1864      1     21     39      0.6954E-01       15.62    
   1865      1     21     40      0.7109E-01       15.62    
   1866      1     21     41      0.6987E-01       15.62    
   1867      1     21     42      0.6646E-01       15.62    
   1868      1     21     43      0.6567E-01       15.62    
   1869      1     21     44      0.6839E-01       15.62    
   1870      1     21     45      0.7398E-01       15.62    
   1871      1     21     46      0.7724E-01       15.62    
   1872      1     21     47      0.7904E-01       15.62    
   1873      1     21     48      0.7937E-01       15.62    
   1874      1     21     49      0.7833E-01       15.62    
   1875      1     21     50      0.7678E-01       15.62    
   1876      1     21     51      0.7601E-01       15.62    
   1877      1     21     52      0.7517E-01       15.62    
   1878      1     21     53      0.7378E-01       15.62    
   1879      1     21     54      0.7159E-01       15.62    
   1880      1     21     55      0.6976E-01       15.62    
   1881      1     21     56      0.6843E-01       15.62    
   1882      1     21     57      0.6701E-01       15.62    
   1883      1     21     58      0.6502E-01       15.62    
   1884      1     21     59      0.6282E-01       15.62    
   1885      1     21     60      0.5955E-01       15.62    
   1886      1     21     61      0.5637E-01       15.62    
   1887      1     21     62      0.5239E-01       15.62    
   1888      1     21     63      0.4805E-01       15.62    
   1889      1     21     64      0.4269E-01       15.62    
   1890      1     21     65      0.3382E-01       15.62    
   1891      1     21     66      0.2187E-01       15.62    
   1892      1     21     67      0.1296E-01       15.62    
   1893      1     21     68      0.5722E-02       15.62    
   1894      1     21     69       0.000           15.62    
   1895      1     21     70       0.000           15.62    
   1896      1     21     71       0.000           15.62    
   1897      1     21     88       0.000           15.62    
   1898      1     21     89       0.000           15.62    
   1899      1     21     90      0.1509E-01       15.62    
   1900      1     21     91      0.2457E-01       15.62    
   1901      1     21     92      0.3599E-01       15.62    
   1902      1     21     93      0.4528E-01       15.62    
   1903      1     21     94      0.5461E-01       15.62    
   1904      1     21     95      0.6213E-01       15.62    
   1905      1     21     96      0.6685E-01       15.62    
   1906      1     21     97      0.7109E-01       15.62    
   1907      1     21     98      0.7354E-01       15.62    
   1908      1     21     99      0.7491E-01       15.62    
   1909      1     21    100      0.7587E-01       15.62    
   1910      1     22      1      0.5397           15.62    
   1911      1     22      2      0.5251           15.62    
   1912      1     22      3      0.5058           15.62    
   1913      1     22      4      0.4843           15.62    
   1914      1     22      5      0.4680           15.62    
   1915      1     22      6      0.4561           15.62    
   1916      1     22      7      0.4421           15.62    
   1917      1     22      8      0.4279           15.62    
   1918      1     22      9      0.4141           15.62    
   1919      1     22     10      0.3970           15.62    
   1920      1     22     11      0.3808           15.62    
   1921      1     22     12      0.3618           15.62    
   1922      1     22     13      0.3414           15.62    
   1923      1     22     14      0.3195           15.62    
   1924      1     22     15      0.2880           15.62    
   1925      1     22     16      0.2597           15.62    
   1926      1     22     17      0.2289           15.62    
   1927      1     22     18      0.2005           15.62    
   1928      1     22     19      0.1781           15.62    
   1929      1     22     20      0.1552           15.62    
   1930      1     22     21      0.1331           15.62    
   1931      1     22     22      0.1138           15.62    
   1932      1     22     23      0.9152E-01       15.62    
   1933      1     22     24      0.7177E-01       15.62    
   1934      1     22     25      0.5003E-01       15.62    
   1935      1     22     26      0.3170E-01       15.62    
   1936      1     22     27      0.1332E-01       15.62    
   1937      1     22     28      0.2628E-01       15.62    
   1938      1     22     29       0.000           15.62    
   1939      1     22     30       0.000           15.62    
   1940      1     22     31      0.1089E-01       15.62    
   1941      1     22     32      0.3030E-01       15.62    
   1942      1     22     33      0.4736E-01       15.62    
   1943      1     22     34      0.5962E-01       15.62    
   1944      1     22     35      0.6580E-01       15.62    
   1945      1     22     36      0.6719E-01       15.62    
   1946      1     22     37      0.6602E-01       15.62    
   1947      1     22     38      0.6520E-01       15.62    
   1948      1     22     39      0.6522E-01       15.62    
   1949      1     22     40      0.6541E-01       15.62    
   1950      1     22     41      0.6362E-01       15.62    
   1951      1     22     42      0.6124E-01       15.62    
   1952      1     22     43      0.6054E-01       15.62    
   1953      1     22     44      0.6208E-01       15.62    
   1954      1     22     45      0.6584E-01       15.62    
   1955      1     22     46      0.6815E-01       15.62    
   1956      1     22     47      0.6933E-01       15.62    
   1957      1     22     48      0.6954E-01       15.62    
   1958      1     22     49      0.6881E-01       15.62    
   1959      1     22     50      0.6716E-01       15.62    
   1960      1     22     51      0.6582E-01       15.62    
   1961      1     22     52      0.6420E-01       15.62    
   1962      1     22     53      0.6221E-01       15.62    
   1963      1     22     54      0.5973E-01       15.62    
   1964      1     22     55      0.5741E-01       15.62    
   1965      1     22     56      0.5545E-01       15.62    
   1966      1     22     57      0.5354E-01       15.62    
   1967      1     22     58      0.5167E-01       15.62    
   1968      1     22     59      0.4858E-01       15.62    
   1969      1     22     60      0.4324E-01       15.62    
   1970      1     22     61      0.3784E-01       15.62    
   1971      1     22     62      0.3180E-01       15.62    
   1972      1     22     63      0.2760E-01       15.62    
   1973      1     22     64      0.2118E-01       15.62    
   1974      1     22     65      0.1040E-01       15.62    
   1975      1     22     66       0.000           15.62    
   1976      1     22     67       0.000           15.62    
   1977      1     22     68       0.000           15.62    
   1978      1     22     86       0.000           15.62    
   1979      1     22     87       0.000           15.62    
   1980      1     22     88       0.000           15.62    
   1981      1     22     89      0.1211E-01       15.62    
   1982      1     22     90      0.2588E-01       15.62    
   1983      1     22     91      0.3478E-01       15.62    
   1984      1     22     92      0.4396E-01       15.62    
   1985      1     22     93      0.5101E-01       15.62    
   1986      1     22     94      0.5786E-01       15.62    
   1987      1     22     95      0.6308E-01       15.62    
   1988      1     22     96      0.6635E-01       15.62    
   1989      1     22     97      0.6944E-01       15.62    
   1990      1     22     98      0.7140E-01       15.62    
   1991      1     22     99      0.7274E-01       15.62    
   1992      1     22    100      0.7385E-01       15.62    
   1993      1     23      1      0.5520           15.62    
   1994      1     23      2      0.5408           15.62    
   1995      1     23      3      0.5202           15.62    
   1996      1     23      4      0.4966           15.62    
   1997      1     23      5      0.4765           15.62    
   1998      1     23      6      0.4610           15.62    
   1999      1     23      7      0.4440           15.62    
   2000      1     23      8      0.4285           15.62    
   2001      1     23      9      0.4144           15.62    
   2002      1     23     10      0.3974           15.62    
   2003      1     23     11      0.3819           15.62    
   2004      1     23     12      0.3644           15.62    
   2005      1     23     13      0.3474           15.62    
   2006      1     23     14      0.3260           15.62    
   2007      1     23     15      0.2897           15.62    
   2008      1     23     16      0.2587           15.62    
   2009      1     23     17      0.2254           15.62    
   2010      1     23     18      0.1947           15.62    
   2011      1     23     19      0.1708           15.62    
   2012      1     23     20      0.1478           15.62    
   2013      1     23     21      0.1265           15.62    
   2014      1     23     22      0.1084           15.62    
   2015      1     23     23      0.8793E-01       15.62    
   2016      1     23     24      0.7006E-01       15.62    
   2017      1     23     25      0.5140E-01       15.62    
   2018      1     23     26      0.3883E-01       15.62    
   2019      1     23     27      0.2785E-01       15.62    
   2020      1     23     28       0.000           15.62    
   2021      1     23     29       0.000           15.62    
   2022      1     23     30       0.000           15.62    
   2023      1     23     31      0.9357E-02       15.62    
   2024      1     23     32      0.2478E-01       15.62    
   2025      1     23     33      0.4210E-01       15.62    
   2026      1     23     34      0.5482E-01       15.62    
   2027      1     23     35      0.6166E-01       15.62    
   2028      1     23     36      0.6455E-01       15.62    
   2029      1     23     37      0.6526E-01       15.62    
   2030      1     23     38      0.6508E-01       15.62    
   2031      1     23     39      0.6442E-01       15.62    
   2032      1     23     40      0.6326E-01       15.62    
   2033      1     23     41      0.6054E-01       15.62    
   2034      1     23     42      0.5814E-01       15.62    
   2035      1     23     43      0.5688E-01       15.62    
   2036      1     23     44      0.5665E-01       15.62    
   2037      1     23     45      0.5786E-01       15.62    
   2038      1     23     46      0.5897E-01       15.62    
   2039      1     23     47      0.5954E-01       15.62    
   2040      1     23     48      0.5957E-01       15.62    
   2041      1     23     49      0.5858E-01       15.62    
   2042      1     23     50      0.5644E-01       15.62    
   2043      1     23     51      0.5446E-01       15.62    
   2044      1     23     52      0.5204E-01       15.62    
   2045      1     23     53      0.4944E-01       15.62    
   2046      1     23     54      0.4631E-01       15.62    
   2047      1     23     55      0.4282E-01       15.62    
   2048      1     23     56      0.3964E-01       15.62    
   2049      1     23     57      0.3678E-01       15.62    
   2050      1     23     58      0.3511E-01       15.62    
   2051      1     23     59      0.3087E-01       15.62    
   2052      1     23     60      0.2388E-01       15.62    
   2053      1     23     61      0.1734E-01       15.62    
   2054      1     23     62      0.9759E-02       15.62    
   2055      1     23     63      0.3691E-04       15.62    
   2056      1     23     64       0.000           15.62    
   2057      1     23     65       0.000           15.62    
   2058      1     23     66       0.000           15.62    
   2059      1     23     85       0.000           15.62    
   2060      1     23     86       0.000           15.62    
   2061      1     23     87       0.000           15.62    
   2062      1     23     88      0.6357E-02       15.62    
   2063      1     23     89      0.2101E-01       15.62    
   2064      1     23     90      0.3282E-01       15.62    
   2065      1     23     91      0.4095E-01       15.62    
   2066      1     23     92      0.4867E-01       15.62    
   2067      1     23     93      0.5437E-01       15.62    
   2068      1     23     94      0.5959E-01       15.62    
   2069      1     23     95      0.6295E-01       15.62    
   2070      1     23     96      0.6479E-01       15.62    
   2071      1     23     97      0.6647E-01       15.62    
   2072      1     23     98      0.6781E-01       15.62    
   2073      1     23     99      0.6939E-01       15.62    
   2074      1     23    100      0.7081E-01       15.62    
   2075      1     24      1      0.5624           15.62    
   2076      1     24      2      0.5533           15.62    
   2077      1     24      3      0.5331           15.62    
   2078      1     24      4      0.5089           15.62    
   2079      1     24      5      0.4865           15.62    
   2080      1     24      6      0.4684           15.62    
   2081      1     24      7      0.4489           15.62    
   2082      1     24      8      0.4311           15.62    
   2083      1     24      9      0.4154           15.62    
   2084      1     24     10      0.3970           15.62    
   2085      1     24     11      0.3804           15.62    
   2086      1     24     12      0.3613           15.62    
   2087      1     24     13      0.3411           15.62    
   2088      1     24     14      0.3183           15.62    
   2089      1     24     15      0.2838           15.62    
   2090      1     24     16      0.2530           15.62    
   2091      1     24     17      0.2191           15.62    
   2092      1     24     18      0.1875           15.62    
   2093      1     24     19      0.1630           15.62    
   2094      1     24     20      0.1408           15.62    
   2095      1     24     21      0.1210           15.62    
   2096      1     24     22      0.1045           15.62    
   2097      1     24     23      0.8624E-01       15.62    
   2098      1     24     24      0.7046E-01       15.62    
   2099      1     24     25      0.5300E-01       15.62    
   2100      1     24     26      0.3452E-01       15.62    
   2101      1     24     27      0.1671E-01       15.62    
   2102      1     24     28       0.000           15.62    
   2103      1     24     29       0.000           15.62    
   2104      1     24     30       0.000           15.62    
   2105      1     24     31      0.8186E-02       15.62    
   2106      1     24     32      0.2327E-01       15.62    
   2107      1     24     33      0.3770E-01       15.62    
   2108      1     24     34      0.4867E-01       15.62    
   2109      1     24     35      0.5470E-01       15.62    
   2110      1     24     36      0.5938E-01       15.62    
   2111      1     24     37      0.6178E-01       15.62    
   2112      1     24     38      0.6171E-01       15.62    
   2113      1     24     39      0.5991E-01       15.62    
   2114      1     24     40      0.5723E-01       15.62    
   2115      1     24     41      0.5353E-01       15.62    
   2116      1     24     42      0.5021E-01       15.62    
   2117      1     24     43      0.4757E-01       15.62    
   2118      1     24     44      0.4517E-01       15.62    
   2119      1     24     45      0.4449E-01       15.62    
   2120      1     24     46      0.4453E-01       15.62    
   2121      1     24     47      0.4446E-01       15.62    
   2122      1     24     48      0.4426E-01       15.62    
   2123      1     24     49      0.4251E-01       15.62    
   2124      1     24     50      0.3979E-01       15.62    
   2125      1     24     51      0.3712E-01       15.62    
   2126      1     24     52      0.3378E-01       15.62    
   2127      1     24     53      0.3029E-01       15.62    
   2128      1     24     54      0.2537E-01       15.62    
   2129      1     24     55      0.1984E-01       15.62    
   2130      1     24     56      0.1511E-01       15.62    
   2131      1     24     57      0.1217E-01       15.62    
   2132      1     24     58      0.1030E-01       15.62    
   2133      1     24     59      0.2941E-02       15.62    
   2134      1     24     60       0.000           15.62    
   2135      1     24     61       0.000           15.62    
   2136      1     24     62       0.000           15.62    
   2137      1     24     63       0.000           15.62    
   2138      1     24     84       0.000           15.62    
   2139      1     24     85       0.000           15.62    
   2140      1     24     86       0.000           15.62    
   2141      1     24     87      0.2322E-02       15.62    
   2142      1     24     88      0.1604E-01       15.62    
   2143      1     24     89      0.2915E-01       15.62    
   2144      1     24     90      0.3942E-01       15.62    
   2145      1     24     91      0.4656E-01       15.62    
   2146      1     24     92      0.5278E-01       15.62    
   2147      1     24     93      0.5706E-01       15.62    
   2148      1     24     94      0.6060E-01       15.62    
   2149      1     24     95      0.6215E-01       15.62    
   2150      1     24     96      0.6236E-01       15.62    
   2151      1     24     97      0.6226E-01       15.62    
   2152      1     24     98      0.6281E-01       15.62    
   2153      1     24     99      0.6511E-01       15.62    
   2154      1     24    100      0.6697E-01       15.62    
   2155      1     25      1      0.5653           15.62    
   2156      1     25      2      0.5549           15.62    
   2157      1     25      3      0.5380           15.62    
   2158      1     25      4      0.5159           15.62    
   2159      1     25      5      0.4937           15.62    
   2160      1     25      6      0.4749           15.62    
   2161      1     25      7      0.4542           15.62    
   2162      1     25      8      0.4340           15.62    
   2163      1     25      9      0.4163           15.62    
   2164      1     25     10      0.3957           15.62    
   2165      1     25     11      0.3771           15.62    
   2166      1     25     12      0.3553           15.62    
   2167      1     25     13      0.3314           15.62    
   2168      1     25     14      0.3072           15.62    
   2169      1     25     15      0.2747           15.62    
   2170      1     25     16      0.2452           15.62    
   2171      1     25     17      0.2125           15.62    
   2172      1     25     18      0.1819           15.62    
   2173      1     25     19      0.1584           15.62    
   2174      1     25     20      0.1368           15.62    
   2175      1     25     21      0.1181           15.62    
   2176      1     25     22      0.1030           15.62    
   2177      1     25     23      0.8645E-01       15.62    
   2178      1     25     24      0.7199E-01       15.62    
   2179      1     25     25      0.5572E-01       15.62    
   2180      1     25     26      0.3935E-01       15.62    
   2181      1     25     27      0.2706E-01       15.62    
   2182      1     25     28      0.1401E-01       15.62    
   2183      1     25     29       0.000           15.62    
   2184      1     25     30       0.000           15.62    
   2185      1     25     31       0.000           15.62    
   2186      1     25     32      0.1571E-01       15.62    
   2187      1     25     33      0.3252E-01       15.62    
   2188      1     25     34      0.3917E-01       15.62    
   2189      1     25     35      0.4461E-01       15.62    
   2190      1     25     36      0.5089E-01       15.62    
   2191      1     25     37      0.5392E-01       15.62    
   2192      1     25     38      0.5336E-01       15.62    
   2193      1     25     39      0.5032E-01       15.62    
   2194      1     25     40      0.4627E-01       15.62    
   2195      1     25     41      0.4143E-01       15.62    
   2196      1     25     42      0.3690E-01       15.62    
   2197      1     25     43      0.3292E-01       15.62    
   2198      1     25     44      0.2884E-01       15.62    
   2199      1     25     45      0.2677E-01       15.62    
   2200      1     25     46      0.2570E-01       15.62    
   2201      1     25     47      0.2525E-01       15.62    
   2202      1     25     48      0.2542E-01       15.62    
   2203      1     25     49      0.2240E-01       15.62    
   2204      1     25     50      0.1872E-01       15.62    
   2205      1     25     51      0.1544E-01       15.62    
   2206      1     25     52      0.1164E-01       15.62    
   2207      1     25     53      0.8176E-02       15.62    
   2208      1     25     54      0.2743E-02       15.62    
   2209      1     25     55       0.000           15.62    
   2210      1     25     83       0.000           15.62    
   2211      1     25     84       0.000           15.62    
   2212      1     25     85       0.000           15.62    
   2213      1     25     86       0.000           15.62    
   2214      1     25     87      0.1247E-01       15.62    
   2215      1     25     88      0.2401E-01       15.62    
   2216      1     25     89      0.3567E-01       15.62    
   2217      1     25     90      0.4502E-01       15.62    
   2218      1     25     91      0.5082E-01       15.62    
   2219      1     25     92      0.5601E-01       15.62    
   2220      1     25     93      0.5913E-01       15.62    
   2221      1     25     94      0.6110E-01       15.62    
   2222      1     25     95      0.6148E-01       15.62    
   2223      1     25     96      0.6053E-01       15.62    
   2224      1     25     97      0.5908E-01       15.62    
   2225      1     25     98      0.5901E-01       15.62    
   2226      1     25     99      0.6198E-01       15.62    
   2227      1     25    100      0.6405E-01       15.62    
   2228      1     26      1      0.5662           15.62    
   2229      1     26      2      0.5547           15.62    
   2230      1     26      3      0.5400           15.62    
   2231      1     26      4      0.5203           15.62    
   2232      1     26      5      0.4994           15.62    
   2233      1     26      6      0.4808           15.62    
   2234      1     26      7      0.4592           15.62    
   2235      1     26      8      0.4370           15.62    
   2236      1     26      9      0.4169           15.62    
   2237      1     26     10      0.3932           15.62    
   2238      1     26     11      0.3718           15.62    
   2239      1     26     12      0.3464           15.62    
   2240      1     26     13      0.3195           15.62    
   2241      1     26     14      0.2940           15.62    
   2242      1     26     15      0.2625           15.62    
   2243      1     26     16      0.2345           15.62    
   2244      1     26     17      0.2036           15.62    
   2245      1     26     18      0.1750           15.62    
   2246      1     26     19      0.1534           15.62    
   2247      1     26     20      0.1329           15.62    
   2248      1     26     21      0.1157           15.62    
   2249      1     26     22      0.1024           15.62    
   2250      1     26     23      0.8794E-01       15.62    
   2251      1     26     24      0.7524E-01       15.62    
   2252      1     26     25      0.6133E-01       15.62    
   2253      1     26     26      0.4701E-01       15.62    
   2254      1     26     27      0.3422E-01       15.62    
   2255      1     26     28      0.2046E-01       15.62    
   2256      1     26     29      0.3216E-02       15.62    
   2257      1     26     30      0.6492E-02       15.62    
   2258      1     26     31      0.1430E-01       15.62    
   2259      1     26     32      0.1045E-01       15.62    
   2260      1     26     33      0.1367E-01       15.62    
   2261      1     26     34      0.2058E-01       15.62    
   2262      1     26     35      0.2278E-01       15.62    
   2263      1     26     36      0.3259E-01       15.62    
   2264      1     26     37      0.3543E-01       15.62    
   2265      1     26     38      0.3404E-01       15.62    
   2266      1     26     39      0.2930E-01       15.62    
   2267      1     26     40      0.2311E-01       15.62    
   2268      1     26     82       0.000           15.62    
   2269      1     26     83       0.000           15.62    
   2270      1     26     84       0.000           15.62    
   2271      1     26     85      0.3170E-02       15.62    
   2272      1     26     86      0.1374E-01       15.62    
   2273      1     26     87      0.2449E-01       15.62    
   2274      1     26     88      0.3370E-01       15.62    
   2275      1     26     89      0.4341E-01       15.62    
   2276      1     26     90      0.5110E-01       15.62    
   2277      1     26     91      0.5584E-01       15.62    
   2278      1     26     92      0.5959E-01       15.62    
   2279      1     26     93      0.6149E-01       15.62    
   2280      1     26     94      0.6230E-01       15.62    
   2281      1     26     95      0.6188E-01       15.62    
   2282      1     26     96      0.6060E-01       15.62    
   2283      1     26     97      0.5918E-01       15.62    
   2284      1     26     98      0.5893E-01       15.62    
   2285      1     26     99      0.6070E-01       15.62    
   2286      1     26    100      0.6231E-01       15.62    
   2287      1     27      1      0.5670           15.62    
   2288      1     27      2      0.5548           15.62    
   2289      1     27      3      0.5411           15.62    
   2290      1     27      4      0.5230           15.62    
   2291      1     27      5      0.5033           15.62    
   2292      1     27      6      0.4853           15.62    
   2293      1     27      7      0.4633           15.62    
   2294      1     27      8      0.4393           15.62    
   2295      1     27      9      0.4168           15.62    
   2296      1     27     10      0.3899           15.62    
   2297      1     27     11      0.3657           15.62    
   2298      1     27     12      0.3373           15.62    
   2299      1     27     13      0.3080           15.62    
   2300      1     27     14      0.2813           15.62    
   2301      1     27     15      0.2500           15.62    
   2302      1     27     16      0.2230           15.62    
   2303      1     27     17      0.1934           15.62    
   2304      1     27     18      0.1666           15.62    
   2305      1     27     19      0.1470           15.62    
   2306      1     27     20      0.1288           15.62    
   2307      1     27     21      0.1138           15.62    
   2308      1     27     22      0.1025           15.62    
   2309      1     27     23      0.9048E-01       15.62    
   2310      1     27     24      0.7985E-01       15.62    
   2311      1     27     25      0.6826E-01       15.62    
   2312      1     27     26      0.5537E-01       15.62    
   2313      1     27     27      0.4182E-01       15.62    
   2314      1     27     28      0.2446E-01       15.62    
   2315      1     27     29      0.7162E-02       15.62    
   2316      1     27     30      0.1566E-02       15.62    
   2317      1     27     31       0.000           15.62    
   2318      1     27     32       0.000           15.62    
   2319      1     27     33      0.7411E-02       15.62    
   2320      1     27     80       0.000           15.62    
   2321      1     27     81       0.000           15.62    
   2322      1     27     82       0.000           15.62    
   2323      1     27     83       0.000           15.62    
   2324      1     27     84      0.8255E-02       15.62    
   2325      1     27     85      0.1729E-01       15.62    
   2326      1     27     86      0.2705E-01       15.62    
   2327      1     27     87      0.3572E-01       15.62    
   2328      1     27     88      0.4322E-01       15.62    
   2329      1     27     89      0.5101E-01       15.62    
   2330      1     27     90      0.5687E-01       15.62    
   2331      1     27     91      0.6061E-01       15.62    
   2332      1     27     92      0.6297E-01       15.62    
   2333      1     27     93      0.6383E-01       15.62    
   2334      1     27     94      0.6386E-01       15.62    
   2335      1     27     95      0.6304E-01       15.62    
   2336      1     27     96      0.6184E-01       15.62    
   2337      1     27     97      0.6064E-01       15.62    
   2338      1     27     98      0.6021E-01       15.62    
   2339      1     27     99      0.6093E-01       15.62    
   2340      1     27    100      0.6193E-01       15.62    
   2341      1     28      1      0.5681           15.62    
   2342      1     28      2      0.5553           15.62    
   2343      1     28      3      0.5419           15.62    
   2344      1     28      4      0.5244           15.62    
   2345      1     28      5      0.5055           15.62    
   2346      1     28      6      0.4880           15.62    
   2347      1     28      7      0.4664           15.62    
   2348      1     28      8      0.4407           15.62    
   2349      1     28      9      0.4160           15.62    
   2350      1     28     10      0.3865           15.62    
   2351      1     28     11      0.3601           15.62    
   2352      1     28     12      0.3294           15.62    
   2353      1     28     13      0.2984           15.62    
   2354      1     28     14      0.2709           15.62    
   2355      1     28     15      0.2394           15.62    
   2356      1     28     16      0.2126           15.62    
   2357      1     28     17      0.1836           15.62    
   2358      1     28     18      0.1579           15.62    
   2359      1     28     19      0.1401           15.62    
   2360      1     28     20      0.1246           15.62    
   2361      1     28     21      0.1124           15.62    
   2362      1     28     22      0.1032           15.62    
   2363      1     28     23      0.9354E-01       15.62    
   2364      1     28     24      0.8489E-01       15.62    
   2365      1     28     25      0.7478E-01       15.62    
   2366      1     28     26      0.6319E-01       15.62    
   2367      1     28     27      0.5140E-01       15.62    
   2368      1     28     28      0.3795E-01       15.62    
   2369      1     28     29      0.2614E-01       15.62    
   2370      1     28     30      0.1001E-01       15.62    
   2371      1     28     31       0.000           15.62    
   2372      1     28     32       0.000           15.62    
   2373      1     28     78       0.000           15.62    
   2374      1     28     79       0.000           15.62    
   2375      1     28     80       0.000           15.62    
   2376      1     28     81       0.000           15.62    
   2377      1     28     82       0.000           15.62    
   2378      1     28     83      0.4225E-02       15.62    
   2379      1     28     84      0.1971E-01       15.62    
   2380      1     28     85      0.2828E-01       15.62    
   2381      1     28     86      0.3682E-01       15.62    
   2382      1     28     87      0.4423E-01       15.62    
   2383      1     28     88      0.5042E-01       15.62    
   2384      1     28     89      0.5677E-01       15.62    
   2385      1     28     90      0.6140E-01       15.62    
   2386      1     28     91      0.6408E-01       15.62    
   2387      1     28     92      0.6547E-01       15.62    
   2388      1     28     93      0.6569E-01       15.62    
   2389      1     28     94      0.6522E-01       15.62    
   2390      1     28     95      0.6421E-01       15.62    
   2391      1     28     96      0.6312E-01       15.62    
   2392      1     28     97      0.6201E-01       15.62    
   2393      1     28     98      0.6146E-01       15.62    
   2394      1     28     99      0.6161E-01       15.62    
   2395      1     28    100      0.6221E-01       15.62    
   2396      1     29      1      0.5700           15.62    
   2397      1     29      2      0.5563           15.62    
   2398      1     29      3      0.5425           15.62    
   2399      1     29      4      0.5251           15.62    
   2400      1     29      5      0.5063           15.62    
   2401      1     29      6      0.4890           15.62    
   2402      1     29      7      0.4675           15.62    
   2403      1     29      8      0.4403           15.62    
   2404      1     29      9      0.4137           15.62    
   2405      1     29     10      0.3820           15.62    
   2406      1     29     11      0.3536           15.62    
   2407      1     29     12      0.3207           15.62    
   2408      1     29     13      0.2882           15.62    
   2409      1     29     14      0.2600           15.62    
   2410      1     29     15      0.2281           15.62    
   2411      1     29     16      0.2013           15.62    
   2412      1     29     17      0.1726           15.62    
   2413      1     29     18      0.1479           15.62    
   2414      1     29     19      0.1323           15.62    
   2415      1     29     20      0.1201           15.62    
   2416      1     29     21      0.1111           15.62    
   2417      1     29     22      0.1046           15.62    
   2418      1     29     23      0.9788E-01       15.62    
   2419      1     29     24      0.9167E-01       15.62    
   2420      1     29     25      0.8335E-01       15.62    
   2421      1     29     26      0.7366E-01       15.62    
   2422      1     29     27      0.6466E-01       15.62    
   2423      1     29     28      0.5424E-01       15.62    
   2424      1     29     29      0.4269E-01       15.62    
   2425      1     29     30      0.3068E-01       15.62    
   2426      1     29     31      0.1058E-01       15.62    
   2427      1     29     76       0.000           15.62    
   2428      1     29     77       0.000           15.62    
   2429      1     29     78       0.000           15.62    
   2430      1     29     79       0.000           15.62    
   2431      1     29     80       0.000           15.62    
   2432      1     29     81       0.000           15.62    
   2433      1     29     82       0.000           15.62    
   2434      1     29     83      0.1538E-01       15.62    
   2435      1     29     84      0.2834E-01       15.62    
   2436      1     29     85      0.3735E-01       15.62    
   2437      1     29     86      0.4524E-01       15.62    
   2438      1     29     87      0.5186E-01       15.62    
   2439      1     29     88      0.5690E-01       15.62    
   2440      1     29     89      0.6171E-01       15.62    
   2441      1     29     90      0.6499E-01       15.62    
   2442      1     29     91      0.6662E-01       15.62    
   2443      1     29     92      0.6732E-01       15.62    
   2444      1     29     93      0.6720E-01       15.62    
   2445      1     29     94      0.6645E-01       15.62    
   2446      1     29     95      0.6533E-01       15.62    
   2447      1     29     96      0.6422E-01       15.62    
   2448      1     29     97      0.6315E-01       15.62    
   2449      1     29     98      0.6261E-01       15.62    
   2450      1     29     99      0.6248E-01       15.62    
   2451      1     29    100      0.6280E-01       15.62    
   2452      1     30      1      0.5723           15.62    
   2453      1     30      2      0.5574           15.62    
   2454      1     30      3      0.5428           15.62    
   2455      1     30      4      0.5247           15.62    
   2456      1     30      5      0.5052           15.62    
   2457      1     30      6      0.4870           15.62    
   2458      1     30      7      0.4642           15.62    
   2459      1     30      8      0.4366           15.62    
   2460      1     30      9      0.4097           15.62    
   2461      1     30     10      0.3771           15.62    
   2462      1     30     11      0.3475           15.62    
   2463      1     30     12      0.3131           15.62    
   2464      1     30     13      0.2793           15.62    
   2465      1     30     14      0.2507           15.62    
   2466      1     30     15      0.2184           15.62    
   2467      1     30     16      0.1913           15.62    
   2468      1     30     17      0.1628           15.62    
   2469      1     30     18      0.1394           15.62    
   2470      1     30     19      0.1259           15.62    
   2471      1     30     20      0.1165           15.62    
   2472      1     30     21      0.1105           15.62    
   2473      1     30     22      0.1066           15.62    
   2474      1     30     23      0.1026           15.62    
   2475      1     30     24      0.9869E-01       15.62    
   2476      1     30     25      0.9259E-01       15.62    
   2477      1     30     26      0.8508E-01       15.62    
   2478      1     30     27      0.7842E-01       15.62    
   2479      1     30     28      0.6991E-01       15.62    
   2480      1     30     29      0.5887E-01       15.62    
   2481      1     30     30      0.4643E-01       15.62    
   2482      1     30     74       0.000           15.62    
   2483      1     30     75       0.000           15.62    
   2484      1     30     76       0.000           15.62    
   2485      1     30     77       0.000           15.62    
   2486      1     30     78       0.000           15.62    
   2487      1     30     79       0.000           15.62    
   2488      1     30     80       0.000           15.62    
   2489      1     30     81       0.000           15.62    
   2490      1     30     82      0.9039E-02       15.62    
   2491      1     30     83      0.2266E-01       15.62    
   2492      1     30     84      0.3518E-01       15.62    
   2493      1     30     85      0.4412E-01       15.62    
   2494      1     30     86      0.5162E-01       15.62    
   2495      1     30     87      0.5758E-01       15.62    
   2496      1     30     88      0.6165E-01       15.62    
   2497      1     30     89      0.6516E-01       15.62    
   2498      1     30     90      0.6738E-01       15.62    
   2499      1     30     91      0.6840E-01       15.62    
   2500      1     30     92      0.6858E-01       15.62    
   2501      1     30     93      0.6810E-01       15.62    
   2502      1     30     94      0.6714E-01       15.62    
   2503      1     30     95      0.6598E-01       15.62    
   2504      1     30     96      0.6482E-01       15.62    
   2505      1     30     97      0.6374E-01       15.62    
   2506      1     30     98      0.6330E-01       15.62    
   2507      1     30     99      0.6322E-01       15.62    
   2508      1     30    100      0.6326E-01       15.62    
   2509      1     31      1      0.5747           15.62    
   2510      1     31      2      0.5586           15.62    
   2511      1     31      3      0.5430           15.62    
   2512      1     31      4      0.5236           15.62    
   2513      1     31      5      0.5029           15.62    
   2514      1     31      6      0.4835           15.62    
   2515      1     31      7      0.4593           15.62    
   2516      1     31      8      0.4317           15.62    
   2517      1     31      9      0.4053           15.62    
   2518      1     31     10      0.3730           15.62    
   2519      1     31     11      0.3432           15.62    
   2520      1     31     12      0.3081           15.62    
   2521      1     31     13      0.2735           15.62    
   2522      1     31     14      0.2447           15.62    
   2523      1     31     15      0.2117           15.62    
   2524      1     31     16      0.1840           15.62    
   2525      1     31     17      0.1552           15.62    
   2526      1     31     18      0.1327           15.62    
   2527      1     31     19      0.1212           15.62    
   2528      1     31     20      0.1142           15.62    
   2529      1     31     21      0.1107           15.62    
   2530      1     31     22      0.1090           15.62    
   2531      1     31     23      0.1072           15.62    
   2532      1     31     24      0.1047           15.62    
   2533      1     31     25      0.1002           15.62    
   2534      1     31     26      0.9431E-01       15.62    
   2535      1     31     27      0.8889E-01       15.62    
   2536      1     31     28      0.8146E-01       15.62    
   2537      1     31     29      0.7090E-01       15.62    
   2538      1     31     30      0.5776E-01       15.62    
   2539      1     31     72       0.000           15.62    
   2540      1     31     73       0.000           15.62    
   2541      1     31     74       0.000           15.62    
   2542      1     31     75       0.000           15.62    
   2543      1     31     76       0.000           15.62    
   2544      1     31     77       0.000           15.62    
   2545      1     31     78       0.000           15.62    
   2546      1     31     79       0.000           15.62    
   2547      1     31     80       0.000           15.62    
   2548      1     31     81       0.000           15.62    
   2549      1     31     82      0.1615E-01       15.62    
   2550      1     31     83      0.2860E-01       15.62    
   2551      1     31     84      0.4041E-01       15.62    
   2552      1     31     85      0.4886E-01       15.62    
   2553      1     31     86      0.5607E-01       15.62    
   2554      1     31     87      0.6131E-01       15.62    
   2555      1     31     88      0.6460E-01       15.62    
   2556      1     31     89      0.6714E-01       15.62    
   2557      1     31     90      0.6860E-01       15.62    
   2558      1     31     91      0.6926E-01       15.62    
   2559      1     31     92      0.6919E-01       15.62    
   2560      1     31     93      0.6858E-01       15.62    
   2561      1     31     94      0.6752E-01       15.62    
   2562      1     31     95      0.6632E-01       15.62    
   2563      1     31     96      0.6513E-01       15.62    
   2564      1     31     97      0.6410E-01       15.62    
   2565      1     31     98      0.6385E-01       15.62    
   2566      1     31     99      0.6373E-01       15.62    
   2567      1     31    100      0.6355E-01       15.62    
   2568      1     32      1      0.5779           15.62    
   2569      1     32      2      0.5603           15.62    
   2570      1     32      3      0.5432           15.62    
   2571      1     32      4      0.5223           15.62    
   2572      1     32      5      0.4998           15.62    
   2573      1     32      6      0.4791           15.62    
   2574      1     32      7      0.4540           15.62    
   2575      1     32      8      0.4267           15.62    
   2576      1     32      9      0.4011           15.62    
   2577      1     32     10      0.3698           15.62    
   2578      1     32     11      0.3407           15.62    
   2579      1     32     12      0.3063           15.62    
   2580      1     32     13      0.2716           15.62    
   2581      1     32     14      0.2416           15.62    
   2582      1     32     15      0.2072           15.62    
   2583      1     32     16      0.1779           15.62    
   2584      1     32     17      0.1474           15.62    
   2585      1     32     18      0.1244           15.62    
   2586      1     32     19      0.1160           15.62    
   2587      1     32     20      0.1127           15.62    
   2588      1     32     21      0.1123           15.62    
   2589      1     32     22      0.1126           15.62    
   2590      1     32     23      0.1128           15.62    
   2591      1     32     24      0.1111           15.62    
   2592      1     32     25      0.1078           15.62    
   2593      1     32     26      0.1035           15.62    
   2594      1     32     27      0.9883E-01       15.62    
   2595      1     32     28      0.9183E-01       15.62    
   2596      1     32     29      0.8132E-01       15.62    
   2597      1     32     30      0.6722E-01       15.62    
   2598      1     32     70       0.000           15.62    
   2599      1     32     71       0.000           15.62    
   2600      1     32     72       0.000           15.62    
   2601      1     32     73       0.000           15.62    
   2602      1     32     74       0.000           15.62    
   2603      1     32     75       0.000           15.62    
   2604      1     32     76       0.000           15.62    
   2605      1     32     77       0.000           15.62    
   2606      1     32     78       0.000           15.62    
   2607      1     32     79       0.000           15.62    
   2608      1     32     80       0.000           15.62    
   2609      1     32     81       0.000           15.62    
   2610      1     32     82      0.1953E-01       15.62    
   2611      1     32     83      0.3269E-01       15.62    
   2612      1     32     84      0.4489E-01       15.62    
   2613      1     32     85      0.5309E-01       15.62    
   2614      1     32     86      0.5995E-01       15.62    
   2615      1     32     87      0.6416E-01       15.62    
   2616      1     32     88      0.6654E-01       15.62    
   2617      1     32     89      0.6828E-01       15.62    
   2618      1     32     90      0.6913E-01       15.62    
   2619      1     32     91      0.6949E-01       15.62    
   2620      1     32     92      0.6939E-01       15.62    
   2621      1     32     93      0.6886E-01       15.62    
   2622      1     32     94      0.6782E-01       15.62    
   2623      1     32     95      0.6661E-01       15.62    
   2624      1     32     96      0.6550E-01       15.62    
   2625      1     32     97      0.6456E-01       15.62    
   2626      1     32     98      0.6433E-01       15.62    
   2627      1     32     99      0.6422E-01       15.62    
   2628      1     32    100      0.6391E-01       15.62    
   2629      1     33      1      0.5810           15.62    
   2630      1     33      2      0.5620           15.62    
   2631      1     33      3      0.5437           15.62    
   2632      1     33      4      0.5213           15.62    
   2633      1     33      5      0.4973           15.62    
   2634      1     33      6      0.4755           15.62    
   2635      1     33      7      0.4501           15.62    
   2636      1     33      8      0.4234           15.62    
   2637      1     33      9      0.3986           15.62    
   2638      1     33     10      0.3684           15.62    
   2639      1     33     11      0.3403           15.62    
   2640      1     33     12      0.3068           15.62    
   2641      1     33     13      0.2724           15.62    
   2642      1     33     14      0.2419           15.62    
   2643      1     33     15      0.2067           15.62    
   2644      1     33     16      0.1764           15.62    
   2645      1     33     17      0.1449           15.62    
   2646      1     33     18      0.1216           15.62    
   2647      1     33     19      0.1147           15.62    
   2648      1     33     20      0.1135           15.62    
   2649      1     33     21      0.1152           15.62    
   2650      1     33     22      0.1171           15.62    
   2651      1     33     23      0.1176           15.62    
   2652      1     33     24      0.1164           15.62    
   2653      1     33     25      0.1139           15.62    
   2654      1     33     26      0.1104           15.62    
   2655      1     33     27      0.1059           15.62    
   2656      1     33     28      0.9817E-01       15.62    
   2657      1     33     29      0.8677E-01       15.62    
   2658      1     33     30      0.7194E-01       15.62    
   2659      1     33     68       0.000           15.62    
   2660      1     33     69       0.000           15.62    
   2661      1     33     70       0.000           15.62    
   2662      1     33     71       0.000           15.62    
   2663      1     33     72       0.000           15.62    
   2664      1     33     73       0.000           15.62    
   2665      1     33     74       0.000           15.62    
   2666      1     33     75       0.000           15.62    
   2667      1     33     76       0.000           15.62    
   2668      1     33     77       0.000           15.62    
   2669      1     33     78       0.000           15.62    
   2670      1     33     79       0.000           15.62    
   2671      1     33     80       0.000           15.62    
   2672      1     33     81      0.5161E-02       15.62    
   2673      1     33     82      0.2407E-01       15.62    
   2674      1     33     83      0.3661E-01       15.62    
   2675      1     33     84      0.4812E-01       15.62    
   2676      1     33     85      0.5586E-01       15.62    
   2677      1     33     86      0.6210E-01       15.62    
   2678      1     33     87      0.6533E-01       15.62    
   2679      1     33     88      0.6699E-01       15.62    
   2680      1     33     89      0.6828E-01       15.62    
   2681      1     33     90      0.6901E-01       15.62    
   2682      1     33     91      0.6930E-01       15.62    
   2683      1     33     92      0.6924E-01       15.62    
   2684      1     33     93      0.6885E-01       15.62    
   2685      1     33     94      0.6800E-01       15.62    
   2686      1     33     95      0.6681E-01       15.62    
   2687      1     33     96      0.6583E-01       15.62    
   2688      1     33     97      0.6498E-01       15.62    
   2689      1     33     98      0.6456E-01       15.62    
   2690      1     33     99      0.6449E-01       15.62    
   2691      1     33    100      0.6419E-01       15.62    
   2692      1     34      1      0.5850           15.62    
   2693      1     34      2      0.5644           15.62    
   2694      1     34      3      0.5447           15.62    
   2695      1     34      4      0.5207           15.62    
   2696      1     34      5      0.4952           15.62    
   2697      1     34      6      0.4723           15.62    
   2698      1     34      7      0.4469           15.62    
   2699      1     34      8      0.4209           15.62    
   2700      1     34      9      0.3972           15.62    
   2701      1     34     10      0.3685           15.62    
   2702      1     34     11      0.3417           15.62    
   2703      1     34     12      0.3096           15.62    
   2704      1     34     13      0.2758           15.62    
   2705      1     34     14      0.2450           15.62    
   2706      1     34     15      0.2093           15.62    
   2707      1     34     16      0.1789           15.62    
   2708      1     34     17      0.1476           15.62    
   2709      1     34     18      0.1252           15.62    
   2710      1     34     19      0.1181           15.62    
   2711      1     34     20      0.1171           15.62    
   2712      1     34     21      0.1198           15.62    
   2713      1     34     22      0.1228           15.62    
   2714      1     34     23      0.1239           15.62    
   2715      1     34     24      0.1226           15.62    
   2716      1     34     25      0.1193           15.62    
   2717      1     34     26      0.1146           15.62    
   2718      1     34     27      0.1096           15.62    
   2719      1     34     28      0.1010           15.62    
   2720      1     34     29      0.8853E-01       15.62    
   2721      1     34     30      0.7289E-01       15.62    
   2722      1     34     31      0.4527E-01       15.62    
   2723      1     34     66       0.000           15.62    
   2724      1     34     67       0.000           15.62    
   2725      1     34     68       0.000           15.62    
   2726      1     34     69       0.000           15.62    
   2727      1     34     70       0.000           15.62    
   2728      1     34     71       0.000           15.62    
   2729      1     34     72       0.000           15.62    
   2730      1     34     73       0.000           15.62    
   2731      1     34     74       0.000           15.62    
   2732      1     34     75       0.000           15.62    
   2733      1     34     76       0.000           15.62    
   2734      1     34     77       0.000           15.62    
   2735      1     34     78       0.000           15.62    
   2736      1     34     79       0.000           15.62    
   2737      1     34     80       0.000           15.62    
   2738      1     34     81      0.1513E-01       15.62    
   2739      1     34     82      0.2989E-01       15.62    
   2740      1     34     83      0.4100E-01       15.62    
   2741      1     34     84      0.5127E-01       15.62    
   2742      1     34     85      0.5804E-01       15.62    
   2743      1     34     86      0.6300E-01       15.62    
   2744      1     34     87      0.6518E-01       15.62    
   2745      1     34     88      0.6624E-01       15.62    
   2746      1     34     89      0.6742E-01       15.62    
   2747      1     34     90      0.6844E-01       15.62    
   2748      1     34     91      0.6885E-01       15.62    
   2749      1     34     92      0.6879E-01       15.62    
   2750      1     34     93      0.6841E-01       15.62    
   2751      1     34     94      0.6779E-01       15.62    
   2752      1     34     95      0.6675E-01       15.62    
   2753      1     34     96      0.6586E-01       15.62    
   2754      1     34     97      0.6507E-01       15.62    
   2755      1     34     98      0.6465E-01       15.62    
   2756      1     34     99      0.6448E-01       15.62    
   2757      1     34    100      0.6432E-01       15.62    
   2758      1     35      1      0.5898           15.62    
   2759      1     35      2      0.5675           15.62    
   2760      1     35      3      0.5464           15.62    
   2761      1     35      4      0.5210           15.62    
   2762      1     35      5      0.4946           15.62    
   2763      1     35      6      0.4713           15.62    
   2764      1     35      7      0.4457           15.62    
   2765      1     35      8      0.4202           15.62    
   2766      1     35      9      0.3974           15.62    
   2767      1     35     10      0.3702           15.62    
   2768      1     35     11      0.3452           15.62    
   2769      1     35     12      0.3147           15.62    
   2770      1     35     13      0.2817           15.62    
   2771      1     35     14      0.2509           15.62    
   2772      1     35     15      0.2151           15.62    
   2773      1     35     16      0.1847           15.62    
   2774      1     35     17      0.1539           15.62    
   2775      1     35     18      0.1323           15.62    
   2776      1     35     19      0.1239           15.62    
   2777      1     35     20      0.1219           15.62    
   2778      1     35     21      0.1245           15.62    
   2779      1     35     22      0.1281           15.62    
   2780      1     35     23      0.1294           15.62    
   2781      1     35     24      0.1270           15.62    
   2782      1     35     25      0.1216           15.62    
   2783      1     35     26      0.1152           15.62    
   2784      1     35     27      0.1093           15.62    
   2785      1     35     28      0.9887E-01       15.62    
   2786      1     35     29      0.8436E-01       15.62    
   2787      1     35     30      0.6686E-01       15.62    
   2788      1     35     64       0.000           15.62    
   2789      1     35     65       0.000           15.62    
   2790      1     35     66       0.000           15.62    
   2791      1     35     67       0.000           15.62    
   2792      1     35     68       0.000           15.62    
   2793      1     35     69       0.000           15.62    
   2794      1     35     70       0.000           15.62    
   2795      1     35     71       0.000           15.62    
   2796      1     35     72       0.000           15.62    
   2797      1     35     73       0.000           15.62    
   2798      1     35     74       0.000           15.62    
   2799      1     35     75       0.000           15.62    
   2800      1     35     76       0.000           15.62    
   2801      1     35     77       0.000           15.62    
   2802      1     35     78       0.000           15.62    
   2803      1     35     79       0.000           15.62    
   2804      1     35     80      0.2748E-02       15.62    
   2805      1     35     81      0.2048E-01       15.62    
   2806      1     35     82      0.3463E-01       15.62    
   2807      1     35     83      0.4484E-01       15.62    
   2808      1     35     84      0.5406E-01       15.62    
   2809      1     35     85      0.5989E-01       15.62    
   2810      1     35     86      0.6347E-01       15.62    
   2811      1     35     87      0.6468E-01       15.62    
   2812      1     35     88      0.6529E-01       15.62    
   2813      1     35     89      0.6646E-01       15.62    
   2814      1     35     90      0.6766E-01       15.62    
   2815      1     35     91      0.6808E-01       15.62    
   2816      1     35     92      0.6808E-01       15.62    
   2817      1     35     93      0.6782E-01       15.62    
   2818      1     35     94      0.6721E-01       15.62    
   2819      1     35     95      0.6632E-01       15.62    
   2820      1     35     96      0.6559E-01       15.62    
   2821      1     35     97      0.6492E-01       15.62    
   2822      1     35     98      0.6446E-01       15.62    
   2823      1     35     99      0.6425E-01       15.62    
   2824      1     35    100      0.6413E-01       15.62    
   2825      1     36      1      0.5945           15.62    
   2826      1     36      2      0.5707           15.62    
   2827      1     36      3      0.5485           15.62    
   2828      1     36      4      0.5221           15.62    
   2829      1     36      5      0.4951           15.62    
   2830      1     36      6      0.4717           15.62    
   2831      1     36      7      0.4458           15.62    
   2832      1     36      8      0.4205           15.62    
   2833      1     36      9      0.3983           15.62    
   2834      1     36     10      0.3725           15.62    
   2835      1     36     11      0.3492           15.62    
   2836      1     36     12      0.3208           15.62    
   2837      1     36     13      0.2890           15.62    
   2838      1     36     14      0.2581           15.62    
   2839      1     36     15      0.2218           15.62    
   2840      1     36     16      0.1908           15.62    
   2841      1     36     17      0.1589           15.62    
   2842      1     36     18      0.1364           15.62    
   2843      1     36     19      0.1278           15.62    
   2844      1     36     20      0.1253           15.62    
   2845      1     36     21      0.1273           15.62    
   2846      1     36     22      0.1305           15.62    
   2847      1     36     23      0.1314           15.62    
   2848      1     36     24      0.1276           15.62    
   2849      1     36     25      0.1201           15.62    
   2850      1     36     26      0.1124           15.62    
   2851      1     36     27      0.1054           15.62    
   2852      1     36     28      0.9293E-01       15.62    
   2853      1     36     29      0.7565E-01       15.62    
   2854      1     36     30      0.5505E-01       15.62    
   2855      1     36     62       0.000           15.62    
   2856      1     36     63       0.000           15.62    
   2857      1     36     64       0.000           15.62    
   2858      1     36     65       0.000           15.62    
   2859      1     36     66       0.000           15.62    
   2860      1     36     67       0.000           15.62    
   2861      1     36     68       0.000           15.62    
   2862      1     36     69       0.000           15.62    
   2863      1     36     70       0.000           15.62    
   2864      1     36     71       0.000           15.62    
   2865      1     36     72       0.000           15.62    
   2866      1     36     73       0.000           15.62    
   2867      1     36     74       0.000           15.62    
   2868      1     36     75       0.000           15.62    
   2869      1     36     76       0.000           15.62    
   2870      1     36     77       0.000           15.62    
   2871      1     36     78       0.000           15.62    
   2872      1     36     79       0.000           15.62    
   2873      1     36     80      0.1034E-01       15.62    
   2874      1     36     81      0.2546E-01       15.62    
   2875      1     36     82      0.3828E-01       15.62    
   2876      1     36     83      0.4767E-01       15.62    
   2877      1     36     84      0.5630E-01       15.62    
   2878      1     36     85      0.6163E-01       15.62    
   2879      1     36     86      0.6422E-01       15.62    
   2880      1     36     87      0.6472E-01       15.62    
   2881      1     36     88      0.6492E-01       15.62    
   2882      1     36     89      0.6586E-01       15.62    
   2883      1     36     90      0.6691E-01       15.62    
   2884      1     36     91      0.6726E-01       15.62    
   2885      1     36     92      0.6731E-01       15.62    
   2886      1     36     93      0.6720E-01       15.62    
   2887      1     36     94      0.6656E-01       15.62    
   2888      1     36     95      0.6579E-01       15.62    
   2889      1     36     96      0.6518E-01       15.62    
   2890      1     36     97      0.6460E-01       15.62    
   2891      1     36     98      0.6422E-01       15.62    
   2892      1     36     99      0.6396E-01       15.62    
   2893      1     36    100      0.6380E-01       15.62    
   2894      1     37      1      0.6002           15.62    
   2895      1     37      2      0.5746           15.62    
   2896      1     37      3      0.5510           15.62    
   2897      1     37      4      0.5234           15.62    
   2898      1     37      5      0.4958           15.62    
   2899      1     37      6      0.4722           15.62    
   2900      1     37      7      0.4461           15.62    
   2901      1     37      8      0.4209           15.62    
   2902      1     37      9      0.3993           15.62    
   2903      1     37     10      0.3749           15.62    
   2904      1     37     11      0.3536           15.62    
   2905      1     37     12      0.3282           15.62    
   2906      1     37     13      0.2989           15.62    
   2907      1     37     14      0.2670           15.62    
   2908      1     37     15      0.2302           15.62    
   2909      1     37     16      0.1990           15.62    
   2910      1     37     17      0.1670           15.62    
   2911      1     37     18      0.1434           15.62    
   2912      1     37     19      0.1327           15.62    
   2913      1     37     20      0.1274           15.62    
   2914      1     37     21      0.1264           15.62    
   2915      1     37     22      0.1275           15.62    
   2916      1     37     23      0.1263           15.62    
   2917      1     37     24      0.1215           15.62    
   2918      1     37     25      0.1131           15.62    
   2919      1     37     26      0.1041           15.62    
   2920      1     37     27      0.9534E-01       15.62    
   2921      1     37     28      0.8062E-01       15.62    
   2922      1     37     29      0.5971E-01       15.62    
   2923      1     37     30      0.3618E-01       15.62    
   2924      1     37     62       0.000           15.62    
   2925      1     37     63       0.000           15.62    
   2926      1     37     64       0.000           15.62    
   2927      1     37     65       0.000           15.62    
   2928      1     37     66       0.000           15.62    
   2929      1     37     67       0.000           15.62    
   2930      1     37     68       0.000           15.62    
   2931      1     37     69       0.000           15.62    
   2932      1     37     70       0.000           15.62    
   2933      1     37     71       0.000           15.62    
   2934      1     37     72       0.000           15.62    
   2935      1     37     73       0.000           15.62    
   2936      1     37     74       0.000           15.62    
   2937      1     37     75       0.000           15.62    
   2938      1     37     76       0.000           15.62    
   2939      1     37     77       0.000           15.62    
   2940      1     37     78       0.000           15.62    
   2941      1     37     79      0.3399E-03       15.62    
   2942      1     37     80      0.1354E-01       15.62    
   2943      1     37     81      0.2884E-01       15.62    
   2944      1     37     82      0.4122E-01       15.62    
   2945      1     37     83      0.5037E-01       15.62    
   2946      1     37     84      0.5852E-01       15.62    
   2947      1     37     85      0.6299E-01       15.62    
   2948      1     37     86      0.6497E-01       15.62    
   2949      1     37     87      0.6523E-01       15.62    
   2950      1     37     88      0.6514E-01       15.62    
   2951      1     37     89      0.6546E-01       15.62    
   2952      1     37     90      0.6608E-01       15.62    
   2953      1     37     91      0.6635E-01       15.62    
   2954      1     37     92      0.6645E-01       15.62    
   2955      1     37     93      0.6641E-01       15.62    
   2956      1     37     94      0.6582E-01       15.62    
   2957      1     37     95      0.6519E-01       15.62    
   2958      1     37     96      0.6463E-01       15.62    
   2959      1     37     97      0.6406E-01       15.62    
   2960      1     37     98      0.6387E-01       15.62    
   2961      1     37     99      0.6359E-01       15.62    
   2962      1     37    100      0.6340E-01       15.62    
   2963      1     38      1      0.6058           15.62    
   2964      1     38      2      0.5783           15.62    
   2965      1     38      3      0.5533           15.62    
   2966      1     38      4      0.5242           15.62    
   2967      1     38      5      0.4957           15.62    
   2968      1     38      6      0.4716           15.62    
   2969      1     38      7      0.4454           15.62    
   2970      1     38      8      0.4204           15.62    
   2971      1     38      9      0.3995           15.62    
   2972      1     38     10      0.3761           15.62    
   2973      1     38     11      0.3561           15.62    
   2974      1     38     12      0.3322           15.62    
   2975      1     38     13      0.3046           15.62    
   2976      1     38     14      0.2735           15.62    
   2977      1     38     15      0.2376           15.62    
   2978      1     38     16      0.2076           15.62    
   2979      1     38     17      0.1767           15.62    
   2980      1     38     18      0.1523           15.62    
   2981      1     38     19      0.1376           15.62    
   2982      1     38     20      0.1266           15.62    
   2983      1     38     21      0.1211           15.62    
   2984      1     38     22      0.1204           15.62    
   2985      1     38     23      0.1171           15.62    
   2986      1     38     24      0.1110           15.62    
   2987      1     38     25      0.1016           15.62    
   2988      1     38     26      0.9116E-01       15.62    
   2989      1     38     27      0.8044E-01       15.62    
   2990      1     38     28      0.6291E-01       15.62    
   2991      1     38     29      0.3824E-01       15.62    
   2992      1     38     62       0.000           15.62    
   2993      1     38     63       0.000           15.62    
   2994      1     38     64       0.000           15.62    
   2995      1     38     65       0.000           15.62    
   2996      1     38     66       0.000           15.62    
   2997      1     38     67       0.000           15.62    
   2998      1     38     68       0.000           15.62    
   2999      1     38     69       0.000           15.62    
   3000      1     38     70       0.000           15.62    
   3001      1     38     71       0.000           15.62    
   3002      1     38     72       0.000           15.62    
   3003      1     38     73       0.000           15.62    
   3004      1     38     74       0.000           15.62    
   3005      1     38     75       0.000           15.62    
   3006      1     38     76       0.000           15.62    
   3007      1     38     77       0.000           15.62    
   3008      1     38     78       0.000           15.62    
   3009      1     38     79      0.2886E-02       15.62    
   3010      1     38     80      0.1388E-01       15.62    
   3011      1     38     81      0.2917E-01       15.62    
   3012      1     38     82      0.4258E-01       15.62    
   3013      1     38     83      0.5246E-01       15.62    
   3014      1     38     84      0.6075E-01       15.62    
   3015      1     38     85      0.6428E-01       15.62    
   3016      1     38     86      0.6550E-01       15.62    
   3017      1     38     87      0.6531E-01       15.62    
   3018      1     38     88      0.6494E-01       15.62    
   3019      1     38     89      0.6507E-01       15.62    
   3020      1     38     90      0.6544E-01       15.62    
   3021      1     38     91      0.6572E-01       15.62    
   3022      1     38     92      0.6587E-01       15.62    
   3023      1     38     93      0.6578E-01       15.62    
   3024      1     38     94      0.6534E-01       15.62    
   3025      1     38     95      0.6474E-01       15.62    
   3026      1     38     96      0.6417E-01       15.62    
   3027      1     38     97      0.6358E-01       15.62    
   3028      1     38     98      0.6338E-01       15.62    
   3029      1     38     99      0.6326E-01       15.62    
   3030      1     38    100      0.6322E-01       15.62    
   3031      1     39      1      0.6106           15.62    
   3032      1     39      2      0.5812           15.62    
   3033      1     39      3      0.5546           15.62    
   3034      1     39      4      0.5241           15.62    
   3035      1     39      5      0.4944           15.62    
   3036      1     39      6      0.4698           15.62    
   3037      1     39      7      0.4435           15.62    
   3038      1     39      8      0.4189           15.62    
   3039      1     39      9      0.3984           15.62    
   3040      1     39     10      0.3756           15.62    
   3041      1     39     11      0.3558           15.62    
   3042      1     39     12      0.3318           15.62    
   3043      1     39     13      0.3043           15.62    
   3044      1     39     14      0.2759           15.62    
   3045      1     39     15      0.2425           15.62    
   3046      1     39     16      0.2142           15.62    
   3047      1     39     17      0.1847           15.62    
   3048      1     39     18      0.1597           15.62    
   3049      1     39     19      0.1401           15.62    
   3050      1     39     20      0.1221           15.62    
   3051      1     39     21      0.1107           15.62    
   3052      1     39     22      0.1073           15.62    
   3053      1     39     23      0.1032           15.62    
   3054      1     39     24      0.9753E-01       15.62    
   3055      1     39     25      0.8892E-01       15.62    
   3056      1     39     26      0.7796E-01       15.62    
   3057      1     39     27      0.6500E-01       15.62    
   3058      1     39     28      0.4355E-01       15.62    
   3059      1     39     62       0.000           15.62    
   3060      1     39     63       0.000           15.62    
   3061      1     39     64       0.000           15.62    
   3062      1     39     65       0.000           15.62    
   3063      1     39     66       0.000           15.62    
   3064      1     39     67       0.000           15.62    
   3065      1     39     68       0.000           15.62    
   3066      1     39     69       0.000           15.62    
   3067      1     39     70       0.000           15.62    
   3068      1     39     71       0.000           15.62    
   3069      1     39     72       0.000           15.62    
   3070      1     39     73       0.000           15.62    
   3071      1     39     74       0.000           15.62    
   3072      1     39     75       0.000           15.62    
   3073      1     39     76       0.000           15.62    
   3074      1     39     77       0.000           15.62    
   3075      1     39     78       0.000           15.62    
   3076      1     39     79       0.000           15.62    
   3077      1     39     80      0.1066E-01       15.62    
   3078      1     39     81      0.2790E-01       15.62    
   3079      1     39     82      0.4297E-01       15.62    
   3080      1     39     83      0.5376E-01       15.62    
   3081      1     39     84      0.6223E-01       15.62    
   3082      1     39     85      0.6521E-01       15.62    
   3083      1     39     86      0.6591E-01       15.62    
   3084      1     39     87      0.6528E-01       15.62    
   3085      1     39     88      0.6462E-01       15.62    
   3086      1     39     89      0.6478E-01       15.62    
   3087      1     39     90      0.6514E-01       15.62    
   3088      1     39     91      0.6542E-01       15.62    
   3089      1     39     92      0.6554E-01       15.62    
   3090      1     39     93      0.6535E-01       15.62    
   3091      1     39     94      0.6482E-01       15.62    
   3092      1     39     95      0.6430E-01       15.62    
   3093      1     39     96      0.6387E-01       15.62    
   3094      1     39     97      0.6341E-01       15.62    
   3095      1     39     98      0.6321E-01       15.62    
   3096      1     39     99      0.6311E-01       15.62    
   3097      1     39    100      0.6326E-01       15.62    
   3098      1     40      1      0.6157           15.62    
   3099      1     40      2      0.5839           15.62    
   3100      1     40      3      0.5554           15.62    
   3101      1     40      4      0.5228           15.62    
   3102      1     40      5      0.4915           15.62    
   3103      1     40      6      0.4663           15.62    
   3104      1     40      7      0.4399           15.62    
   3105      1     40      8      0.4156           15.62    
   3106      1     40      9      0.3957           15.62    
   3107      1     40     10      0.3736           15.62    
   3108      1     40     11      0.3539           15.62    
   3109      1     40     12      0.3300           15.62    
   3110      1     40     13      0.3033           15.62    
   3111      1     40     14      0.2770           15.62    
   3112      1     40     15      0.2458           15.62    
   3113      1     40     16      0.2190           15.62    
   3114      1     40     17      0.1901           15.62    
   3115      1     40     18      0.1639           15.62    
   3116      1     40     19      0.1386           15.62    
   3117      1     40     20      0.1114           15.62    
   3118      1     40     21      0.9120E-01       15.62    
   3119      1     40     22      0.8318E-01       15.62    
   3120      1     40     23      0.8053E-01       15.62    
   3121      1     40     24      0.7854E-01       15.62    
   3122      1     40     25      0.7347E-01       15.62    
   3123      1     40     26      0.6318E-01       15.62    
   3124      1     40     27      0.4816E-01       15.62    
   3125      1     40     28      0.2003E-01       15.62    
   3126      1     40     61       0.000           15.62    
   3127      1     40     62       0.000           15.62    
   3128      1     40     63       0.000           15.62    
   3129      1     40     64       0.000           15.62    
   3130      1     40     65       0.000           15.62    
   3131      1     40     66       0.000           15.62    
   3132      1     40     67       0.000           15.62    
   3133      1     40     68       0.000           15.62    
   3134      1     40     69       0.000           15.62    
   3135      1     40     70       0.000           15.62    
   3136      1     40     71       0.000           15.62    
   3137      1     40     72       0.000           15.62    
   3138      1     40     73       0.000           15.62    
   3139      1     40     74       0.000           15.62    
   3140      1     40     75       0.000           15.62    
   3141      1     40     76       0.000           15.62    
   3142      1     40     77       0.000           15.62    
   3143      1     40     78       0.000           15.62    
   3144      1     40     79       0.000           15.62    
   3145      1     40     80      0.4358E-02       15.62    
   3146      1     40     81      0.2614E-01       15.62    
   3147      1     40     82      0.4355E-01       15.62    
   3148      1     40     83      0.5502E-01       15.62    
   3149      1     40     84      0.6320E-01       15.62    
   3150      1     40     85      0.6600E-01       15.62    
   3151      1     40     86      0.6648E-01       15.62    
   3152      1     40     87      0.6553E-01       15.62    
   3153      1     40     88      0.6460E-01       15.62    
   3154      1     40     89      0.6468E-01       15.62    
   3155      1     40     90      0.6496E-01       15.62    
   3156      1     40     91      0.6516E-01       15.62    
   3157      1     40     92      0.6512E-01       15.62    
   3158      1     40     93      0.6470E-01       15.62    
   3159      1     40     94      0.6424E-01       15.62    
   3160      1     40     95      0.6388E-01       15.62    
   3161      1     40     96      0.6362E-01       15.62    
   3162      1     40     97      0.6335E-01       15.62    
   3163      1     40     98      0.6319E-01       15.62    
   3164      1     40     99      0.6333E-01       15.62    
   3165      1     40    100      0.6359E-01       15.62    
   3166      1     41      1      0.6200           15.62    
   3167      1     41      2      0.5856           15.62    
   3168      1     41      3      0.5551           15.62    
   3169      1     41      4      0.5206           15.62    
   3170      1     41      5      0.4879           15.62    
   3171      1     41      6      0.4620           15.62    
   3172      1     41      7      0.4355           15.62    
   3173      1     41      8      0.4116           15.62    
   3174      1     41      9      0.3922           15.62    
   3175      1     41     10      0.3708           15.62    
   3176      1     41     11      0.3518           15.62    
   3177      1     41     12      0.3287           15.62    
   3178      1     41     13      0.3028           15.62    
   3179      1     41     14      0.2775           15.62    
   3180      1     41     15      0.2472           15.62    
   3181      1     41     16      0.2205           15.62    
   3182      1     41     17      0.1905           15.62    
   3183      1     41     18      0.1605           15.62    
   3184      1     41     19      0.1316           15.62    
   3185      1     41     20      0.9813E-01       15.62    
   3186      1     41     21      0.6926E-01       15.62    
   3187      1     41     22      0.5697E-01       15.62    
   3188      1     41     23      0.5786E-01       15.62    
   3189      1     41     24      0.6167E-01       15.62    
   3190      1     41     25      0.6155E-01       15.62    
   3191      1     41     26      0.5299E-01       15.62    
   3192      1     41     27      0.3764E-01       15.62    
   3193      1     41     28      0.4033E-02       15.62    
   3194      1     41     61       0.000           15.62    
   3195      1     41     62       0.000           15.62    
   3196      1     41     63       0.000           15.62    
   3197      1     41     64       0.000           15.62    
   3198      1     41     65       0.000           15.62    
   3199      1     41     66       0.000           15.62    
   3200      1     41     67       0.000           15.62    
   3201      1     41     68       0.000           15.62    
   3202      1     41     69       0.000           15.62    
   3203      1     41     70       0.000           15.62    
   3204      1     41     71       0.000           15.62    
   3205      1     41     72       0.000           15.62    
   3206      1     41     73       0.000           15.62    
   3207      1     41     74       0.000           15.62    
   3208      1     41     75       0.000           15.62    
   3209      1     41     76       0.000           15.62    
   3210      1     41     77       0.000           15.62    
   3211      1     41     78       0.000           15.62    
   3212      1     41     79       0.000           15.62    
   3213      1     41     80      0.2738E-02       15.62    
   3214      1     41     81      0.2637E-01       15.62    
   3215      1     41     82      0.4534E-01       15.62    
   3216      1     41     83      0.5728E-01       15.62    
   3217      1     41     84      0.6478E-01       15.62    
   3218      1     41     85      0.6705E-01       15.62    
   3219      1     41     86      0.6728E-01       15.62    
   3220      1     41     87      0.6635E-01       15.62    
   3221      1     41     88      0.6540E-01       15.62    
   3222      1     41     89      0.6501E-01       15.62    
   3223      1     41     90      0.6488E-01       15.62    
   3224      1     41     91      0.6482E-01       15.62    
   3225      1     41     92      0.6455E-01       15.62    
   3226      1     41     93      0.6397E-01       15.62    
   3227      1     41     94      0.6378E-01       15.62    
   3228      1     41     95      0.6361E-01       15.62    
   3229      1     41     96      0.6342E-01       15.62    
   3230      1     41     97      0.6326E-01       15.62    
   3231      1     41     98      0.6311E-01       15.62    
   3232      1     41     99      0.6343E-01       15.62    
   3233      1     41    100      0.6384E-01       15.62    
   3234      1     42      1      0.6243           15.62    
   3235      1     42      2      0.5865           15.62    
   3236      1     42      3      0.5534           15.62    
   3237      1     42      4      0.5165           15.62    
   3238      1     42      5      0.4823           15.62    
   3239      1     42      6      0.4559           15.62    
   3240      1     42      7      0.4292           15.62    
   3241      1     42      8      0.4057           15.62    
   3242      1     42      9      0.3871           15.62    
   3243      1     42     10      0.3668           15.62    
   3244      1     42     11      0.3489           15.62    
   3245      1     42     12      0.3272           15.62    
   3246      1     42     13      0.3023           15.62    
   3247      1     42     14      0.2777           15.62    
   3248      1     42     15      0.2479           15.62    
   3249      1     42     16      0.2211           15.62    
   3250      1     42     17      0.1897           15.62    
   3251      1     42     18      0.1567           15.62    
   3252      1     42     19      0.1257           15.62    
   3253      1     42     20      0.8865E-01       15.62    
   3254      1     42     21      0.5453E-01       15.62    
   3255      1     42     22      0.3974E-01       15.62    
   3256      1     42     23      0.4285E-01       15.62    
   3257      1     42     24      0.5119E-01       15.62    
   3258      1     42     25      0.5542E-01       15.62    
   3259      1     42     26      0.4942E-01       15.62    
   3260      1     42     27      0.3605E-01       15.62    
   3261      1     42     28      0.5509E-02       15.62    
   3262      1     42     61       0.000           15.62    
   3263      1     42     62       0.000           15.62    
   3264      1     42     63       0.000           15.62    
   3265      1     42     64       0.000           15.62    
   3266      1     42     65       0.000           15.62    
   3267      1     42     66       0.000           15.62    
   3268      1     42     67       0.000           15.62    
   3269      1     42     68       0.000           15.62    
   3270      1     42     69       0.000           15.62    
   3271      1     42     70       0.000           15.62    
   3272      1     42     71       0.000           15.62    
   3273      1     42     72       0.000           15.62    
   3274      1     42     73       0.000           15.62    
   3275      1     42     74       0.000           15.62    
   3276      1     42     75       0.000           15.62    
   3277      1     42     76       0.000           15.62    
   3278      1     42     77       0.000           15.62    
   3279      1     42     78       0.000           15.62    
   3280      1     42     79       0.000           15.62    
   3281      1     42     80      0.6835E-02       15.62    
   3282      1     42     81      0.2985E-01       15.62    
   3283      1     42     82      0.4835E-01       15.62    
   3284      1     42     83      0.5979E-01       15.62    
   3285      1     42     84      0.6652E-01       15.62    
   3286      1     42     85      0.6833E-01       15.62    
   3287      1     42     86      0.6828E-01       15.62    
   3288      1     42     87      0.6724E-01       15.62    
   3289      1     42     88      0.6615E-01       15.62    
   3290      1     42     89      0.6532E-01       15.62    
   3291      1     42     90      0.6490E-01       15.62    
   3292      1     42     91      0.6444E-01       15.62    
   3293      1     42     92      0.6375E-01       15.62    
   3294      1     42     93      0.6347E-01       15.62    
   3295      1     42     94      0.6335E-01       15.62    
   3296      1     42     95      0.6322E-01       15.62    
   3297      1     42     96      0.6309E-01       15.62    
   3298      1     42     97      0.6294E-01       15.62    
   3299      1     42     98      0.6281E-01       15.62    
   3300      1     42     99      0.6319E-01       15.62    
   3301      1     42    100      0.6388E-01       15.62    
   3302      1     43      1      0.6271           15.62    
   3303      1     43      2      0.5860           15.62    
   3304      1     43      3      0.5499           15.62    
   3305      1     43      4      0.5102           15.62    
   3306      1     43      5      0.4744           15.62    
   3307      1     43      6      0.4474           15.62    
   3308      1     43      7      0.4211           15.62    
   3309      1     43      8      0.3985           15.62    
   3310      1     43      9      0.3810           15.62    
   3311      1     43     10      0.3620           15.62    
   3312      1     43     11      0.3454           15.62    
   3313      1     43     12      0.3250           15.62    
   3314      1     43     13      0.3014           15.62    
   3315      1     43     14      0.2777           15.62    
   3316      1     43     15      0.2486           15.62    
   3317      1     43     16      0.2218           15.62    
   3318      1     43     17      0.1899           15.62    
   3319      1     43     18      0.1560           15.62    
   3320      1     43     19      0.1248           15.62    
   3321      1     43     20      0.8877E-01       15.62    
   3322      1     43     21      0.5680E-01       15.62    
   3323      1     43     22      0.4287E-01       15.62    
   3324      1     43     23      0.4420E-01       15.62    
   3325      1     43     24      0.5142E-01       15.62    
   3326      1     43     25      0.5615E-01       15.62    
   3327      1     43     26      0.5316E-01       15.62    
   3328      1     43     27      0.4229E-01       15.62    
   3329      1     43     28      0.1468E-01       15.62    
   3330      1     43     60       0.000           15.62    
   3331      1     43     61       0.000           15.62    
   3332      1     43     62       0.000           15.62    
   3333      1     43     63       0.000           15.62    
   3334      1     43     64       0.000           15.62    
   3335      1     43     65       0.000           15.62    
   3336      1     43     66       0.000           15.62    
   3337      1     43     67       0.000           15.62    
   3338      1     43     68       0.000           15.62    
   3339      1     43     69       0.000           15.62    
   3340      1     43     70       0.000           15.62    
   3341      1     43     71       0.000           15.62    
   3342      1     43     72       0.000           15.62    
   3343      1     43     73       0.000           15.62    
   3344      1     43     74       0.000           15.62    
   3345      1     43     75       0.000           15.62    
   3346      1     43     76       0.000           15.62    
   3347      1     43     77       0.000           15.62    
   3348      1     43     78       0.000           15.62    
   3349      1     43     79       0.000           15.62    
   3350      1     43     80      0.1676E-01       15.62    
   3351      1     43     81      0.3708E-01       15.62    
   3352      1     43     82      0.5298E-01       15.62    
   3353      1     43     83      0.6277E-01       15.62    
   3354      1     43     84      0.6843E-01       15.62    
   3355      1     43     85      0.6982E-01       15.62    
   3356      1     43     86      0.6933E-01       15.62    
   3357      1     43     87      0.6783E-01       15.62    
   3358      1     43     88      0.6638E-01       15.62    
   3359      1     43     89      0.6507E-01       15.62    
   3360      1     43     90      0.6442E-01       15.62    
   3361      1     43     91      0.6399E-01       15.62    
   3362      1     43     92      0.6350E-01       15.62    
   3363      1     43     93      0.6326E-01       15.62    
   3364      1     43     94      0.6309E-01       15.62    
   3365      1     43     95      0.6287E-01       15.62    
   3366      1     43     96      0.6266E-01       15.62    
   3367      1     43     97      0.6267E-01       15.62    
   3368      1     43     98      0.6299E-01       15.62    
   3369      1     43     99      0.6362E-01       15.62    
   3370      1     43    100      0.6436E-01       15.62    
   3371      1     44      1      0.6289           15.62    
   3372      1     44      2      0.5845           15.62    
   3373      1     44      3      0.5454           15.62    
   3374      1     44      4      0.5026           15.62    
   3375      1     44      5      0.4648           15.62    
   3376      1     44      6      0.4376           15.62    
   3377      1     44      7      0.4120           15.62    
   3378      1     44      8      0.3909           15.62    
   3379      1     44      9      0.3748           15.62    
   3380      1     44     10      0.3574           15.62    
   3381      1     44     11      0.3419           15.62    
   3382      1     44     12      0.3227           15.62    
   3383      1     44     13      0.3002           15.62    
   3384      1     44     14      0.2776           15.62    
   3385      1     44     15      0.2495           15.62    
   3386      1     44     16      0.2232           15.62    
   3387      1     44     17      0.1919           15.62    
   3388      1     44     18      0.1586           15.62    
   3389      1     44     19      0.1286           15.62    
   3390      1     44     20      0.9548E-01       15.62    
   3391      1     44     21      0.6861E-01       15.62    
   3392      1     44     22      0.5639E-01       15.62    
   3393      1     44     23      0.5424E-01       15.62    
   3394      1     44     24      0.5758E-01       15.62    
   3395      1     44     25      0.6075E-01       15.62    
   3396      1     44     26      0.5948E-01       15.62    
   3397      1     44     27      0.4972E-01       15.62    
   3398      1     44     28      0.2306E-01       15.62    
   3399      1     44     60       0.000           15.62    
   3400      1     44     61       0.000           15.62    
   3401      1     44     62       0.000           15.62    
   3402      1     44     63       0.000           15.62    
   3403      1     44     64       0.000           15.62    
   3404      1     44     65       0.000           15.62    
   3405      1     44     66       0.000           15.62    
   3406      1     44     67       0.000           15.62    
   3407      1     44     68       0.000           15.62    
   3408      1     44     69       0.000           15.62    
   3409      1     44     70       0.000           15.62    
   3410      1     44     71       0.000           15.62    
   3411      1     44     72       0.000           15.62    
   3412      1     44     73       0.000           15.62    
   3413      1     44     74       0.000           15.62    
   3414      1     44     75       0.000           15.62    
   3415      1     44     76       0.000           15.62    
   3416      1     44     77       0.000           15.62    
   3417      1     44     78       0.000           15.62    
   3418      1     44     79      0.9758E-02       15.62    
   3419      1     44     80      0.2919E-01       15.62    
   3420      1     44     81      0.4648E-01       15.62    
   3421      1     44     82      0.5915E-01       15.62    
   3422      1     44     83      0.6663E-01       15.62    
   3423      1     44     84      0.7079E-01       15.62    
   3424      1     44     85      0.7158E-01       15.62    
   3425      1     44     86      0.7042E-01       15.62    
   3426      1     44     87      0.6816E-01       15.62    
   3427      1     44     88      0.6618E-01       15.62    
   3428      1     44     89      0.6466E-01       15.62    
   3429      1     44     90      0.6404E-01       15.62    
   3430      1     44     91      0.6382E-01       15.62    
   3431      1     44     92      0.6360E-01       15.62    
   3432      1     44     93      0.6335E-01       15.62    
   3433      1     44     94      0.6301E-01       15.62    
   3434      1     44     95      0.6268E-01       15.62    
   3435      1     44     96      0.6252E-01       15.62    
   3436      1     44     97      0.6256E-01       15.62    
   3437      1     44     98      0.6314E-01       15.62    
   3438      1     44     99      0.6399E-01       15.62    
   3439      1     44    100      0.6485E-01       15.62    
   3440      1     45      1      0.6309           15.62    
   3441      1     45      2      0.5825           15.62    
   3442      1     45      3      0.5394           15.62    
   3443      1     45      4      0.4919           15.62    
   3444      1     45      5      0.4508           15.62    
   3445      1     45      6      0.4237           15.62    
   3446      1     45      7      0.4003           15.62    
   3447      1     45      8      0.3816           15.62    
   3448      1     45      9      0.3674           15.62    
   3449      1     45     10      0.3522           15.62    
   3450      1     45     11      0.3385           15.62    
   3451      1     45     12      0.3211           15.62    
   3452      1     45     13      0.3000           15.62    
   3453      1     45     14      0.2785           15.62    
   3454      1     45     15      0.2514           15.62    
   3455      1     45     16      0.2259           15.62    
   3456      1     45     17      0.1956           15.62    
   3457      1     45     18      0.1639           15.62    
   3458      1     45     19      0.1352           15.62    
   3459      1     45     20      0.1040           15.62    
   3460      1     45     21      0.8058E-01       15.62    
   3461      1     45     22      0.6985E-01       15.62    
   3462      1     45     23      0.6611E-01       15.62    
   3463      1     45     24      0.6714E-01       15.62    
   3464      1     45     25      0.6874E-01       15.62    
   3465      1     45     26      0.6728E-01       15.62    
   3466      1     45     27      0.5692E-01       15.62    
   3467      1     45     60       0.000           15.62    
   3468      1     45     61       0.000           15.62    
   3469      1     45     62       0.000           15.62    
   3470      1     45     63       0.000           15.62    
   3471      1     45     64       0.000           15.62    
   3472      1     45     65       0.000           15.62    
   3473      1     45     66       0.000           15.62    
   3474      1     45     67       0.000           15.62    
   3475      1     45     68       0.000           15.62    
   3476      1     45     69       0.000           15.62    
   3477      1     45     70       0.000           15.62    
   3478      1     45     71       0.000           15.62    
   3479      1     45     72       0.000           15.62    
   3480      1     45     73       0.000           15.62    
   3481      1     45     74       0.000           15.62    
   3482      1     45     75       0.000           15.62    
   3483      1     45     76       0.000           15.62    
   3484      1     45     77       0.000           15.62    
   3485      1     45     78      0.8691E-02       15.62    
   3486      1     45     79      0.2846E-01       15.62    
   3487      1     45     80      0.4638E-01       15.62    
   3488      1     45     81      0.6039E-01       15.62    
   3489      1     45     82      0.6919E-01       15.62    
   3490      1     45     83      0.7359E-01       15.62    
   3491      1     45     84      0.7522E-01       15.62    
   3492      1     45     85      0.7465E-01       15.62    
   3493      1     45     86      0.7222E-01       15.62    
   3494      1     45     87      0.6868E-01       15.62    
   3495      1     45     88      0.6579E-01       15.62    
   3496      1     45     89      0.6454E-01       15.62    
   3497      1     45     90      0.6439E-01       15.62    
   3498      1     45     91      0.6441E-01       15.62    
   3499      1     45     92      0.6419E-01       15.62    
   3500      1     45     93      0.6374E-01       15.62    
   3501      1     45     94      0.6307E-01       15.62    
   3502      1     45     95      0.6265E-01       15.62    
   3503      1     45     96      0.6259E-01       15.62    
   3504      1     45     97      0.6267E-01       15.62    
   3505      1     45     98      0.6335E-01       15.62    
   3506      1     45     99      0.6438E-01       15.62    
   3507      1     45    100      0.6549E-01       15.62    
   3508      1     46      1      0.6333           15.62    
   3509      1     46      2      0.5811           15.62    
   3510      1     46      3      0.5343           15.62    
   3511      1     46      4      0.4823           15.62    
   3512      1     46      5      0.4381           15.62    
   3513      1     46      6      0.4111           15.62    
   3514      1     46      7      0.3899           15.62    
   3515      1     46      8      0.3733           15.62    
   3516      1     46      9      0.3609           15.62    
   3517      1     46     10      0.3478           15.62    
   3518      1     46     11      0.3360           15.62    
   3519      1     46     12      0.3208           15.62    
   3520      1     46     13      0.3008           15.62    
   3521      1     46     14      0.2799           15.62    
   3522      1     46     15      0.2535           15.62    
   3523      1     46     16      0.2288           15.62    
   3524      1     46     17      0.1991           15.62    
   3525      1     46     18      0.1679           15.62    
   3526      1     46     19      0.1400           15.62    
   3527      1     46     20      0.1101           15.62    
   3528      1     46     21      0.8840E-01       15.62    
   3529      1     46     22      0.7844E-01       15.62    
   3530      1     46     23      0.7441E-01       15.62    
   3531      1     46     24      0.7467E-01       15.62    
   3532      1     46     25      0.7508E-01       15.62    
   3533      1     46     26      0.7179E-01       15.62    
   3534      1     46     27      0.5971E-01       15.62    
   3535      1     46     60       0.000           15.62    
   3536      1     46     61       0.000           15.62    
   3537      1     46     62       0.000           15.62    
   3538      1     46     63       0.000           15.62    
   3539      1     46     64       0.000           15.62    
   3540      1     46     65       0.000           15.62    
   3541      1     46     66       0.000           15.62    
   3542      1     46     67       0.000           15.62    
   3543      1     46     68       0.000           15.62    
   3544      1     46     69       0.000           15.62    
   3545      1     46     70       0.000           15.62    
   3546      1     46     71       0.000           15.62    
   3547      1     46     72       0.000           15.62    
   3548      1     46     73       0.000           15.62    
   3549      1     46     74       0.000           15.62    
   3550      1     46     75       0.000           15.62    
   3551      1     46     76       0.000           15.62    
   3552      1     46     77      0.7908E-02       15.62    
   3553      1     46     78      0.2555E-01       15.62    
   3554      1     46     79      0.4599E-01       15.62    
   3555      1     46     80      0.6374E-01       15.62    
   3556      1     46     81      0.7417E-01       15.62    
   3557      1     46     82      0.7869E-01       15.62    
   3558      1     46     83      0.8019E-01       15.62    
   3559      1     46     84      0.7972E-01       15.62    
   3560      1     46     85      0.7811E-01       15.62    
   3561      1     46     86      0.7472E-01       15.62    
   3562      1     46     87      0.7008E-01       15.62    
   3563      1     46     88      0.6631E-01       15.62    
   3564      1     46     89      0.6561E-01       15.62    
   3565      1     46     90      0.6593E-01       15.62    
   3566      1     46     91      0.6608E-01       15.62    
   3567      1     46     92      0.6569E-01       15.62    
   3568      1     46     93      0.6435E-01       15.62    
   3569      1     46     94      0.6333E-01       15.62    
   3570      1     46     95      0.6289E-01       15.62    
   3571      1     46     96      0.6277E-01       15.62    
   3572      1     46     97      0.6300E-01       15.62    
   3573      1     46     98      0.6365E-01       15.62    
   3574      1     46     99      0.6472E-01       15.62    
   3575      1     46    100      0.6612E-01       15.62    
   3576      1     47      1      0.6372           15.62    
   3577      1     47      2      0.5806           15.62    
   3578      1     47      3      0.5303           15.62    
   3579      1     47      4      0.4750           15.62    
   3580      1     47      5      0.4283           15.62    
   3581      1     47      6      0.4004           15.62    
   3582      1     47      7      0.3800           15.62    
   3583      1     47      8      0.3647           15.62    
   3584      1     47      9      0.3538           15.62    
   3585      1     47     10      0.3428           15.62    
   3586      1     47     11      0.3333           15.62    
   3587      1     47     12      0.3206           15.62    
   3588      1     47     13      0.3020           15.62    
   3589      1     47     14      0.2818           15.62    
   3590      1     47     15      0.2562           15.62    
   3591      1     47     16      0.2323           15.62    
   3592      1     47     17      0.2032           15.62    
   3593      1     47     18      0.1722           15.62    
   3594      1     47     19      0.1443           15.62    
   3595      1     47     20      0.1142           15.62    
   3596      1     47     21      0.9314E-01       15.62    
   3597      1     47     22      0.8448E-01       15.62    
   3598      1     47     23      0.8120E-01       15.62    
   3599      1     47     24      0.8104E-01       15.62    
   3600      1     47     25      0.7970E-01       15.62    
   3601      1     47     26      0.7361E-01       15.62    
   3602      1     47     27      0.5810E-01       15.62    
   3603      1     47     60       0.000           15.62    
   3604      1     47     61       0.000           15.62    
   3605      1     47     62       0.000           15.62    
   3606      1     47     63       0.000           15.62    
   3607      1     47     64       0.000           15.62    
   3608      1     47     65       0.000           15.62    
   3609      1     47     66       0.000           15.62    
   3610      1     47     67       0.000           15.62    
   3611      1     47     68       0.000           15.62    
   3612      1     47     69       0.000           15.62    
   3613      1     47     70       0.000           15.62    
   3614      1     47     71       0.000           15.62    
   3615      1     47     72       0.000           15.62    
   3616      1     47     73       0.000           15.62    
   3617      1     47     74       0.000           15.62    
   3618      1     47     75       0.000           15.62    
   3619      1     47     76       0.000           15.62    
   3620      1     47     77      0.1581E-01       15.62    
   3621      1     47     78      0.4050E-01       15.62    
   3622      1     47     79      0.6354E-01       15.62    
   3623      1     47     80      0.8014E-01       15.62    
   3624      1     47     81      0.8707E-01       15.62    
   3625      1     47     82      0.8779E-01       15.62    
   3626      1     47     83      0.8671E-01       15.62    
   3627      1     47     84      0.8422E-01       15.62    
   3628      1     47     85      0.8200E-01       15.62    
   3629      1     47     86      0.7849E-01       15.62    
   3630      1     47     87      0.7391E-01       15.62    
   3631      1     47     88      0.7041E-01       15.62    
   3632      1     47     89      0.6935E-01       15.62    
   3633      1     47     90      0.6884E-01       15.62    
   3634      1     47     91      0.6821E-01       15.62    
   3635      1     47     92      0.6723E-01       15.62    
   3636      1     47     93      0.6591E-01       15.62    
   3637      1     47     94      0.6462E-01       15.62    
   3638      1     47     95      0.6372E-01       15.62    
   3639      1     47     96      0.6328E-01       15.62    
   3640      1     47     97      0.6335E-01       15.62    
   3641      1     47     98      0.6391E-01       15.62    
   3642      1     47     99      0.6510E-01       15.62    
   3643      1     47    100      0.6690E-01       15.62    
   3644      1     48      1      0.6411           15.62    
   3645      1     48      2      0.5810           15.62    
   3646      1     48      3      0.5283           15.62    
   3647      1     48      4      0.4719           15.62    
   3648      1     48      5      0.4251           15.62    
   3649      1     48      6      0.3953           15.62    
   3650      1     48      7      0.3723           15.62    
   3651      1     48      8      0.3567           15.62    
   3652      1     48      9      0.3469           15.62    
   3653      1     48     10      0.3377           15.62    
   3654      1     48     11      0.3297           15.62    
   3655      1     48     12      0.3184           15.62    
   3656      1     48     13      0.3018           15.62    
   3657      1     48     14      0.2831           15.62    
   3658      1     48     15      0.2587           15.62    
   3659      1     48     16      0.2356           15.62    
   3660      1     48     17      0.2078           15.62    
   3661      1     48     18      0.1774           15.62    
   3662      1     48     19      0.1486           15.62    
   3663      1     48     20      0.1161           15.62    
   3664      1     48     21      0.9436E-01       15.62    
   3665      1     48     22      0.8738E-01       15.62    
   3666      1     48     23      0.8581E-01       15.62    
   3667      1     48     24      0.8545E-01       15.62    
   3668      1     48     25      0.8121E-01       15.62    
   3669      1     48     26      0.7004E-01       15.62    
   3670      1     48     27      0.4870E-01       15.62    
   3671      1     48     60       0.000           15.62    
   3672      1     48     61       0.000           15.62    
   3673      1     48     62       0.000           15.62    
   3674      1     48     63       0.000           15.62    
   3675      1     48     64       0.000           15.62    
   3676      1     48     65       0.000           15.62    
   3677      1     48     66       0.000           15.62    
   3678      1     48     67       0.000           15.62    
   3679      1     48     68       0.000           15.62    
   3680      1     48     69       0.000           15.62    
   3681      1     48     70       0.000           15.62    
   3682      1     48     71       0.000           15.62    
   3683      1     48     72       0.000           15.62    
   3684      1     48     73       0.000           15.62    
   3685      1     48     74       0.000           15.62    
   3686      1     48     75       0.000           15.62    
   3687      1     48     76       0.000           15.62    
   3688      1     48     77      0.2057E-01       15.62    
   3689      1     48     78      0.5094E-01       15.62    
   3690      1     48     79      0.7419E-01       15.62    
   3691      1     48     80      0.8650E-01       15.62    
   3692      1     48     81      0.9218E-01       15.62    
   3693      1     48     82      0.9262E-01       15.62    
   3694      1     48     83      0.9068E-01       15.62    
   3695      1     48     84      0.8726E-01       15.62    
   3696      1     48     85      0.8525E-01       15.62    
   3697      1     48     86      0.8264E-01       15.62    
   3698      1     48     87      0.7914E-01       15.62    
   3699      1     48     88      0.7656E-01       15.62    
   3700      1     48     89      0.7440E-01       15.62    
   3701      1     48     90      0.7256E-01       15.62    
   3702      1     48     91      0.7109E-01       15.62    
   3703      1     48     92      0.6944E-01       15.62    
   3704      1     48     93      0.6789E-01       15.62    
   3705      1     48     94      0.6611E-01       15.62    
   3706      1     48     95      0.6456E-01       15.62    
   3707      1     48     96      0.6361E-01       15.62    
   3708      1     48     97      0.6340E-01       15.62    
   3709      1     48     98      0.6396E-01       15.62    
   3710      1     48     99      0.6543E-01       15.62    
   3711      1     48    100      0.6775E-01       15.62    
   3712      1     49      1      0.6445           15.62    
   3713      1     49      2      0.5812           15.62    
   3714      1     49      3      0.5260           15.62    
   3715      1     49      4      0.4680           15.62    
   3716      1     49      5      0.4202           15.62    
   3717      1     49      6      0.3889           15.62    
   3718      1     49      7      0.3645           15.62    
   3719      1     49      8      0.3492           15.62    
   3720      1     49      9      0.3404           15.62    
   3721      1     49     10      0.3328           15.62    
   3722      1     49     11      0.3263           15.62    
   3723      1     49     12      0.3166           15.62    
   3724      1     49     13      0.3015           15.62    
   3725      1     49     14      0.2841           15.62    
   3726      1     49     15      0.2606           15.62    
   3727      1     49     16      0.2384           15.62    
   3728      1     49     17      0.2125           15.62    
   3729      1     49     18      0.1836           15.62    
   3730      1     49     19      0.1544           15.62    
   3731      1     49     20      0.1186           15.62    
   3732      1     49     21      0.9563E-01       15.62    
   3733      1     49     22      0.8942E-01       15.62    
   3734      1     49     23      0.8890E-01       15.62    
   3735      1     49     24      0.8791E-01       15.62    
   3736      1     49     25      0.7988E-01       15.62    
   3737      1     49     26      0.6240E-01       15.62    
   3738      1     49     60       0.000           15.62    
   3739      1     49     61       0.000           15.62    
   3740      1     49     62       0.000           15.62    
   3741      1     49     63       0.000           15.62    
   3742      1     49     64       0.000           15.62    
   3743      1     49     65       0.000           15.62    
   3744      1     49     66       0.000           15.62    
   3745      1     49     67       0.000           15.62    
   3746      1     49     68       0.000           15.62    
   3747      1     49     69       0.000           15.62    
   3748      1     49     70       0.000           15.62    
   3749      1     49     71       0.000           15.62    
   3750      1     49     72       0.000           15.62    
   3751      1     49     73       0.000           15.62    
   3752      1     49     74       0.000           15.62    
   3753      1     49     75       0.000           15.62    
   3754      1     49     76       0.000           15.62    
   3755      1     49     77      0.2617E-01       15.62    
   3756      1     49     78      0.5977E-01       15.62    
   3757      1     49     79      0.8224E-01       15.62    
   3758      1     49     80      0.9056E-01       15.62    
   3759      1     49     81      0.9371E-01       15.62    
   3760      1     49     82      0.9331E-01       15.62    
   3761      1     49     83      0.9132E-01       15.62    
   3762      1     49     84      0.8868E-01       15.62    
   3763      1     49     85      0.8744E-01       15.62    
   3764      1     49     86      0.8587E-01       15.62    
   3765      1     49     87      0.8338E-01       15.62    
   3766      1     49     88      0.8144E-01       15.62    
   3767      1     49     89      0.7867E-01       15.62    
   3768      1     49     90      0.7617E-01       15.62    
   3769      1     49     91      0.7440E-01       15.62    
   3770      1     49     92      0.7222E-01       15.62    
   3771      1     49     93      0.7004E-01       15.62    
   3772      1     49     94      0.6758E-01       15.62    
   3773      1     49     95      0.6541E-01       15.62    
   3774      1     49     96      0.6392E-01       15.62    
   3775      1     49     97      0.6339E-01       15.62    
   3776      1     49     98      0.6404E-01       15.62    
   3777      1     49     99      0.6595E-01       15.62    
   3778      1     49    100      0.6881E-01       15.62    
   3779      1     50      1      0.6484           15.62    
   3780      1     50      2      0.5806           15.62    
   3781      1     50      3      0.5216           15.62    
   3782      1     50      4      0.4600           15.62    
   3783      1     50      5      0.4096           15.62    
   3784      1     50      6      0.3771           15.62    
   3785      1     50      7      0.3532           15.62    
   3786      1     50      8      0.3393           15.62    
   3787      1     50      9      0.3323           15.62    
   3788      1     50     10      0.3270           15.62    
   3789      1     50     11      0.3229           15.62    
   3790      1     50     12      0.3159           15.62    
   3791      1     50     13      0.3022           15.62    
   3792      1     50     14      0.2850           15.62    
   3793      1     50     15      0.2614           15.62    
   3794      1     50     16      0.2395           15.62    
   3795      1     50     17      0.2147           15.62    
   3796      1     50     18      0.1879           15.62    
   3797      1     50     19      0.1614           15.62    
   3798      1     50     20      0.1288           15.62    
   3799      1     50     21      0.1070           15.62    
   3800      1     50     22      0.9810E-01       15.62    
   3801      1     50     23      0.9303E-01       15.62    
   3802      1     50     24      0.8803E-01       15.62    
   3803      1     50     25      0.7495E-01       15.62    
   3804      1     50     59       0.000           15.62    
   3805      1     50     60       0.000           15.62    
   3806      1     50     61       0.000           15.62    
   3807      1     50     62       0.000           15.62    
   3808      1     50     63       0.000           15.62    
   3809      1     50     64       0.000           15.62    
   3810      1     50     65       0.000           15.62    
   3811      1     50     66       0.000           15.62    
   3812      1     50     67       0.000           15.62    
   3813      1     50     68       0.000           15.62    
   3814      1     50     69       0.000           15.62    
   3815      1     50     70       0.000           15.62    
   3816      1     50     71       0.000           15.62    
   3817      1     50     72       0.000           15.62    
   3818      1     50     73       0.000           15.62    
   3819      1     50     74       0.000           15.62    
   3820      1     50     75       0.000           15.62    
   3821      1     50     76       0.000           15.62    
   3822      1     50     77      0.2622E-01       15.62    
   3823      1     50     78      0.6102E-01       15.62    
   3824      1     50     79      0.8206E-01       15.62    
   3825      1     50     80      0.8855E-01       15.62    
   3826      1     50     81      0.9105E-01       15.62    
   3827      1     50     82      0.9102E-01       15.62    
   3828      1     50     83      0.8983E-01       15.62    
   3829      1     50     84      0.8921E-01       15.62    
   3830      1     50     85      0.8859E-01       15.62    
   3831      1     50     86      0.8761E-01       15.62    
   3832      1     50     87      0.8664E-01       15.62    
   3833      1     50     88      0.8608E-01       15.62    
   3834      1     50     89      0.8334E-01       15.62    
   3835      1     50     90      0.8048E-01       15.62    
   3836      1     50     91      0.7860E-01       15.62    
   3837      1     50     92      0.7598E-01       15.62    
   3838      1     50     93      0.7338E-01       15.62    
   3839      1     50     94      0.7021E-01       15.62    
   3840      1     50     95      0.6711E-01       15.62    
   3841      1     50     96      0.6480E-01       15.62    
   3842      1     50     97      0.6365E-01       15.62    
   3843      1     50     98      0.6446E-01       15.62    
   3844      1     50     99      0.6716E-01       15.62    
   3845      1     50    100      0.7078E-01       15.62    
   3846      1     51      1      0.6524           15.62    
   3847      1     51      2      0.5785           15.62    
   3848      1     51      3      0.5145           15.62    
   3849      1     51      4      0.4479           15.62    
   3850      1     51      5      0.3935           15.62    
   3851      1     51      6      0.3598           15.62    
   3852      1     51      7      0.3389           15.62    
   3853      1     51      8      0.3280           15.62    
   3854      1     51      9      0.3233           15.62    
   3855      1     51     10      0.3208           15.62    
   3856      1     51     11      0.3194           15.62    
   3857      1     51     12      0.3158           15.62    
   3858      1     51     13      0.3028           15.62    
   3859      1     51     14      0.2848           15.62    
   3860      1     51     15      0.2597           15.62    
   3861      1     51     16      0.2374           15.62    
   3862      1     51     17      0.2126           15.62    
   3863      1     51     18      0.1872           15.62    
   3864      1     51     19      0.1642           15.62    
   3865      1     51     20      0.1377           15.62    
   3866      1     51     21      0.1180           15.62    
   3867      1     51     22      0.1067           15.62    
   3868      1     51     23      0.9668E-01       15.62    
   3869      1     51     24      0.8690E-01       15.62    
   3870      1     51     25      0.6720E-01       15.62    
   3871      1     51     58       0.000           15.62    
   3872      1     51     59       0.000           15.62    
   3873      1     51     60       0.000           15.62    
   3874      1     51     61       0.000           15.62    
   3875      1     51     62       0.000           15.62    
   3876      1     51     63       0.000           15.62    
   3877      1     51     64       0.000           15.62    
   3878      1     51     65       0.000           15.62    
   3879      1     51     66       0.000           15.62    
   3880      1     51     67       0.000           15.62    
   3881      1     51     68       0.000           15.62    
   3882      1     51     69       0.000           15.62    
   3883      1     51     70       0.000           15.62    
   3884      1     51     71       0.000           15.62    
   3885      1     51     72       0.000           15.62    
   3886      1     51     73       0.000           15.62    
   3887      1     51     74       0.000           15.62    
   3888      1     51     75       0.000           15.62    
   3889      1     51     76       0.000           15.62    
   3890      1     51     77      0.1992E-01       15.62    
   3891      1     51     78      0.5330E-01       15.62    
   3892      1     51     79      0.7253E-01       15.62    
   3893      1     51     80      0.7934E-01       15.62    
   3894      1     51     81      0.8335E-01       15.62    
   3895      1     51     82      0.8528E-01       15.62    
   3896      1     51     83      0.8566E-01       15.62    
   3897      1     51     84      0.8673E-01       15.62    
   3898      1     51     85      0.8706E-01       15.62    
   3899      1     51     86      0.8713E-01       15.62    
   3900      1     51     87      0.8749E-01       15.62    
   3901      1     51     88      0.8754E-01       15.62    
   3902      1     51     89      0.8595E-01       15.62    
   3903      1     51     90      0.8414E-01       15.62    
   3904      1     51     91      0.8279E-01       15.62    
   3905      1     51     92      0.8023E-01       15.62    
   3906      1     51     93      0.7771E-01       15.62    
   3907      1     51     94      0.7434E-01       15.62    
   3908      1     51     95      0.7050E-01       15.62    
   3909      1     51     96      0.6706E-01       15.62    
   3910      1     51     97      0.6477E-01       15.62    
   3911      1     51     98      0.6573E-01       15.62    
   3912      1     51     99      0.6979E-01       15.62    
   3913      1     51    100      0.7431E-01       15.62    
   3914      1     52      1      0.6540           15.62    
   3915      1     52      2      0.5751           15.62    
   3916      1     52      3      0.5075           15.62    
   3917      1     52      4      0.4366           15.62    
   3918      1     52      5      0.3773           15.62    
   3919      1     52      6      0.3424           15.62    
   3920      1     52      7      0.3261           15.62    
   3921      1     52      8      0.3179           15.62    
   3922      1     52      9      0.3149           15.62    
   3923      1     52     10      0.3143           15.62    
   3924      1     52     11      0.3148           15.62    
   3925      1     52     12      0.3137           15.62    
   3926      1     52     13      0.3010           15.62    
   3927      1     52     14      0.2822           15.62    
   3928      1     52     15      0.2558           15.62    
   3929      1     52     16      0.2327           15.62    
   3930      1     52     17      0.2073           15.62    
   3931      1     52     18      0.1829           15.62    
   3932      1     52     19      0.1628           15.62    
   3933      1     52     20      0.1417           15.62    
   3934      1     52     21      0.1245           15.62    
   3935      1     52     22      0.1123           15.62    
   3936      1     52     23      0.9941E-01       15.62    
   3937      1     52     24      0.8616E-01       15.62    
   3938      1     52     58       0.000           15.62    
   3939      1     52     59       0.000           15.62    
   3940      1     52     60       0.000           15.62    
   3941      1     52     61       0.000           15.62    
   3942      1     52     62       0.000           15.62    
   3943      1     52     63       0.000           15.62    
   3944      1     52     64       0.000           15.62    
   3945      1     52     65       0.000           15.62    
   3946      1     52     66       0.000           15.62    
   3947      1     52     67       0.000           15.62    
   3948      1     52     68       0.000           15.62    
   3949      1     52     69       0.000           15.62    
   3950      1     52     70       0.000           15.62    
   3951      1     52     71       0.000           15.62    
   3952      1     52     72       0.000           15.62    
   3953      1     52     73       0.000           15.62    
   3954      1     52     74       0.000           15.62    
   3955      1     52     75       0.000           15.62    
   3956      1     52     76       0.000           15.62    
   3957      1     52     77      0.1572E-01       15.62    
   3958      1     52     78      0.4284E-01       15.62    
   3959      1     52     79      0.5901E-01       15.62    
   3960      1     52     80      0.6666E-01       15.62    
   3961      1     52     81      0.7299E-01       15.62    
   3962      1     52     82      0.7746E-01       15.62    
   3963      1     52     83      0.7968E-01       15.62    
   3964      1     52     84      0.8252E-01       15.62    
   3965      1     52     85      0.8423E-01       15.62    
   3966      1     52     86      0.8557E-01       15.62    
   3967      1     52     87      0.8694E-01       15.62    
   3968      1     52     88      0.8758E-01       15.62    
   3969      1     52     89      0.8741E-01       15.62    
   3970      1     52     90      0.8709E-01       15.62    
   3971      1     52     91      0.8682E-01       15.62    
   3972      1     52     92      0.8502E-01       15.62    
   3973      1     52     93      0.8294E-01       15.62    
   3974      1     52     94      0.7981E-01       15.62    
   3975      1     52     95      0.7585E-01       15.62    
   3976      1     52     96      0.7188E-01       15.62    
   3977      1     52     97      0.6865E-01       15.62    
   3978      1     52     98      0.6960E-01       15.62    
   3979      1     52     99      0.7478E-01       15.62    
   3980      1     52    100      0.7955E-01       15.62    
   3981      1     53      1      0.6516           15.62    
   3982      1     53      2      0.5689           15.62    
   3983      1     53      3      0.4989           15.62    
   3984      1     53      4      0.4266           15.62    
   3985      1     53      5      0.3680           15.62    
   3986      1     53      6      0.3333           15.62    
   3987      1     53      7      0.3159           15.62    
   3988      1     53      8      0.3079           15.62    
   3989      1     53      9      0.3056           15.62    
   3990      1     53     10      0.3056           15.62    
   3991      1     53     11      0.3059           15.62    
   3992      1     53     12      0.3033           15.62    
   3993      1     53     13      0.2912           15.62    
   3994      1     53     14      0.2739           15.62    
   3995      1     53     15      0.2486           15.62    
   3996      1     53     16      0.2249           15.62    
   3997      1     53     17      0.1988           15.62    
   3998      1     53     18      0.1759           15.62    
   3999      1     53     19      0.1590           15.62    
   4000      1     53     20      0.1426           15.62    
   4001      1     53     21      0.1282           15.62    
   4002      1     53     22      0.1165           15.62    
   4003      1     53     23      0.1024           15.62    
   4004      1     53     24      0.8684E-01       15.62    
   4005      1     53     58       0.000           15.62    
   4006      1     53     59       0.000           15.62    
   4007      1     53     60       0.000           15.62    
   4008      1     53     61       0.000           15.62    
   4009      1     53     62       0.000           15.62    
   4010      1     53     63       0.000           15.62    
   4011      1     53     64       0.000           15.62    
   4012      1     53     65       0.000           15.62    
   4013      1     53     66       0.000           15.62    
   4014      1     53     67       0.000           15.62    
   4015      1     53     68       0.000           15.62    
   4016      1     53     69       0.000           15.62    
   4017      1     53     70       0.000           15.62    
   4018      1     53     71       0.000           15.62    
   4019      1     53     72       0.000           15.62    
   4020      1     53     73       0.000           15.62    
   4021      1     53     74       0.000           15.62    
   4022      1     53     75       0.000           15.62    
   4023      1     53     76       0.000           15.62    
   4024      1     53     77      0.3067E-01       15.62    
   4025      1     53     78      0.3098E-01       15.62    
   4026      1     53     79      0.4053E-01       15.62    
   4027      1     53     80      0.4985E-01       15.62    
   4028      1     53     81      0.5936E-01       15.62    
   4029      1     53     82      0.6622E-01       15.62    
   4030      1     53     83      0.7034E-01       15.62    
   4031      1     53     84      0.7698E-01       15.62    
   4032      1     53     85      0.8097E-01       15.62    
   4033      1     53     86      0.8344E-01       15.62    
   4034      1     53     87      0.8571E-01       15.62    
   4035      1     53     88      0.8765E-01       15.62    
   4036      1     53     89      0.8923E-01       15.62    
   4037      1     53     90      0.9073E-01       15.62    
   4038      1     53     91      0.9206E-01       15.62    
   4039      1     53     92      0.9175E-01       15.62    
   4040      1     53     93      0.9055E-01       15.62    
   4041      1     53     94      0.8819E-01       15.62    
   4042      1     53     95      0.8493E-01       15.62    
   4043      1     53     96      0.8153E-01       15.62    
   4044      1     53     97      0.7871E-01       15.62    
   4045      1     53     98      0.7956E-01       15.62    
   4046      1     53     99      0.8438E-01       15.62    
   4047      1     53    100      0.8848E-01       15.62    
   4048      1     54      1      0.6457           15.62    
   4049      1     54      2      0.5612           15.62    
   4050      1     54      3      0.4902           15.62    
   4051      1     54      4      0.4186           15.62    
   4052      1     54      5      0.3628           15.62    
   4053      1     54      6      0.3289           15.62    
   4054      1     54      7      0.3089           15.62    
   4055      1     54      8      0.3004           15.62    
   4056      1     54      9      0.2982           15.62    
   4057      1     54     10      0.2983           15.62    
   4058      1     54     11      0.2982           15.62    
   4059      1     54     12      0.2944           15.62    
   4060      1     54     13      0.2827           15.62    
   4061      1     54     14      0.2663           15.62    
   4062      1     54     15      0.2418           15.62    
   4063      1     54     16      0.2176           15.62    
   4064      1     54     17      0.1901           15.62    
   4065      1     54     18      0.1683           15.62    
   4066      1     54     19      0.1550           15.62    
   4067      1     54     20      0.1420           15.62    
   4068      1     54     21      0.1300           15.62    
   4069      1     54     22      0.1195           15.62    
   4070      1     54     23      0.1059           15.62    
   4071      1     54     24      0.9019E-01       15.62    
   4072      1     54     58       0.000           15.62    
   4073      1     54     59       0.000           15.62    
   4074      1     54     60       0.000           15.62    
   4075      1     54     61       0.000           15.62    
   4076      1     54     62       0.000           15.62    
   4077      1     54     63       0.000           15.62    
   4078      1     54     64       0.000           15.62    
   4079      1     54     65       0.000           15.62    
   4080      1     54     66       0.000           15.62    
   4081      1     54     67       0.000           15.62    
   4082      1     54     68       0.000           15.62    
   4083      1     54     69       0.000           15.62    
   4084      1     54     70       0.000           15.62    
   4085      1     54     71       0.000           15.62    
   4086      1     54     72       0.000           15.62    
   4087      1     54     73       0.000           15.62    
   4088      1     54     74       0.000           15.62    
   4089      1     54     75       0.000           15.62    
   4090      1     54     76       0.000           15.62    
   4091      1     54     77       0.000           15.62    
   4092      1     54     78      0.5129E-02       15.62    
   4093      1     54     79      0.1917E-01       15.62    
   4094      1     54     80      0.3284E-01       15.62    
   4095      1     54     81      0.4660E-01       15.62    
   4096      1     54     82      0.5659E-01       15.62    
   4097      1     54     83      0.6343E-01       15.62    
   4098      1     54     84      0.7243E-01       15.62    
   4099      1     54     85      0.7830E-01       15.62    
   4100      1     54     86      0.8232E-01       15.62    
   4101      1     54     87      0.8526E-01       15.62    
   4102      1     54     88      0.8826E-01       15.62    
   4103      1     54     89      0.9161E-01       15.62    
   4104      1     54     90      0.9485E-01       15.62    
   4105      1     54     91      0.9743E-01       15.62    
   4106      1     54     92      0.9865E-01       15.62    
   4107      1     54     93      0.9860E-01       15.62    
   4108      1     54     94      0.9746E-01       15.62    
   4109      1     54     95      0.9557E-01       15.62    
   4110      1     54     96      0.9364E-01       15.62    
   4111      1     54     97      0.9232E-01       15.62    
   4112      1     54     98      0.9299E-01       15.62    
   4113      1     54     99      0.9595E-01       15.62    
   4114      1     54    100      0.9876E-01       15.62    
   4115      1     55      1      0.6371           15.62    
   4116      1     55      2      0.5506           15.62    
   4117      1     55      3      0.4782           15.62    
   4118      1     55      4      0.4064           15.62    
   4119      1     55      5      0.3519           15.62    
   4120      1     55      6      0.3198           15.62    
   4121      1     55      7      0.3006           15.62    
   4122      1     55      8      0.2928           15.62    
   4123      1     55      9      0.2910           15.62    
   4124      1     55     10      0.2914           15.62    
   4125      1     55     11      0.2914           15.62    
   4126      1     55     12      0.2875           15.62    
   4127      1     55     13      0.2758           15.62    
   4128      1     55     14      0.2597           15.62    
   4129      1     55     15      0.2356           15.62    
   4130      1     55     16      0.2117           15.62    
   4131      1     55     17      0.1848           15.62    
   4132      1     55     18      0.1648           15.62    
   4133      1     55     19      0.1541           15.62    
   4134      1     55     20      0.1429           15.62    
   4135      1     55     21      0.1329           15.62    
   4136      1     55     22      0.1240           15.62    
   4137      1     55     23      0.1118           15.62    
   4138      1     55     24      0.9718E-01       15.62    
   4139      1     55     58       0.000           15.62    
   4140      1     55     59       0.000           15.62    
   4141      1     55     60       0.000           15.62    
   4142      1     55     61       0.000           15.62    
   4143      1     55     62       0.000           15.62    
   4144      1     55     63       0.000           15.62    
   4145      1     55     64       0.000           15.62    
   4146      1     55     65       0.000           15.62    
   4147      1     55     66       0.000           15.62    
   4148      1     55     67       0.000           15.62    
   4149      1     55     68       0.000           15.62    
   4150      1     55     69       0.000           15.62    
   4151      1     55     70       0.000           15.62    
   4152      1     55     71       0.000           15.62    
   4153      1     55     72       0.000           15.62    
   4154      1     55     73       0.000           15.62    
   4155      1     55     74       0.000           15.62    
   4156      1     55     75       0.000           15.62    
   4157      1     55     76       0.000           15.62    
   4158      1     55     77       0.000           15.62    
   4159      1     55     78       0.000           15.62    
   4160      1     55     79       0.000           15.62    
   4161      1     55     80      0.1475E-01       15.62    
   4162      1     55     81      0.3321E-01       15.62    
   4163      1     55     82      0.4759E-01       15.62    
   4164      1     55     83      0.5775E-01       15.62    
   4165      1     55     84      0.6920E-01       15.62    
   4166      1     55     85      0.7678E-01       15.62    
   4167      1     55     86      0.8222E-01       15.62    
   4168      1     55     87      0.8665E-01       15.62    
   4169      1     55     88      0.9097E-01       15.62    
   4170      1     55     89      0.9613E-01       15.62    
   4171      1     55     90      0.1012           15.62    
   4172      1     55     91      0.1052           15.62    
   4173      1     55     92      0.1084           15.62    
   4174      1     55     93      0.1098           15.62    
   4175      1     55     94      0.1102           15.62    
   4176      1     55     95      0.1099           15.62    
   4177      1     55     96      0.1094           15.62    
   4178      1     55     97      0.1092           15.62    
   4179      1     55     98      0.1098           15.62    
   4180      1     55     99      0.1116           15.62    
   4181      1     55    100      0.1131           15.62    
   4182      1     56      1      0.6312           15.62    
   4183      1     56      2      0.5409           15.62    
   4184      1     56      3      0.4642           15.62    
   4185      1     56      4      0.3887           15.62    
   4186      1     56      5      0.3345           15.62    
   4187      1     56      6      0.3061           15.62    
   4188      1     56      7      0.2913           15.62    
   4189      1     56      8      0.2862           15.62    
   4190      1     56      9      0.2857           15.62    
   4191      1     56     10      0.2869           15.62    
   4192      1     56     11      0.2876           15.62    
   4193      1     56     12      0.2847           15.62    
   4194      1     56     13      0.2729           15.62    
   4195      1     56     14      0.2561           15.62    
   4196      1     56     15      0.2319           15.62    
   4197      1     56     16      0.2096           15.62    
   4198      1     56     17      0.1859           15.62    
   4199      1     56     18      0.1684           15.62    
   4200      1     56     19      0.1589           15.62    
   4201      1     56     20      0.1490           15.62    
   4202      1     56     21      0.1399           15.62    
   4203      1     56     22      0.1312           15.62    
   4204      1     56     23      0.1194           15.62    
   4205      1     56     24      0.1062           15.62    
   4206      1     56     25      0.8524E-01       15.62    
   4207      1     56     58       0.000           15.62    
   4208      1     56     59       0.000           15.62    
   4209      1     56     60       0.000           15.62    
   4210      1     56     61       0.000           15.62    
   4211      1     56     62       0.000           15.62    
   4212      1     56     63       0.000           15.62    
   4213      1     56     64       0.000           15.62    
   4214      1     56     65       0.000           15.62    
   4215      1     56     66       0.000           15.62    
   4216      1     56     67       0.000           15.62    
   4217      1     56     68       0.000           15.62    
   4218      1     56     69       0.000           15.62    
   4219      1     56     70       0.000           15.62    
   4220      1     56     71       0.000           15.62    
   4221      1     56     72       0.000           15.62    
   4222      1     56     73       0.000           15.62    
   4223      1     56     74       0.000           15.62    
   4224      1     56     75       0.000           15.62    
   4225      1     56     76       0.000           15.62    
   4226      1     56     77       0.000           15.62    
   4227      1     56     78       0.000           15.62    
   4228      1     56     79       0.000           15.62    
   4229      1     56     80      0.2085E-02       15.62    
   4230      1     56     81      0.2358E-01       15.62    
   4231      1     56     82      0.4190E-01       15.62    
   4232      1     56     83      0.5476E-01       15.62    
   4233      1     56     84      0.6855E-01       15.62    
   4234      1     56     85      0.7777E-01       15.62    
   4235      1     56     86      0.8464E-01       15.62    
   4236      1     56     87      0.9097E-01       15.62    
   4237      1     56     88      0.9667E-01       15.62    
   4238      1     56     89      0.1034           15.62    
   4239      1     56     90      0.1098           15.62    
   4240      1     56     91      0.1150           15.62    
   4241      1     56     92      0.1195           15.62    
   4242      1     56     93      0.1222           15.62    
   4243      1     56     94      0.1241           15.62    
   4244      1     56     95      0.1254           15.62    
   4245      1     56     96      0.1262           15.62    
   4246      1     56     97      0.1269           15.62    
   4247      1     56     98      0.1277           15.62    
   4248      1     56     99      0.1290           15.62    
   4249      1     56    100      0.1295           15.62    
   4250      1     57      1      0.6304           15.62    
   4251      1     57      2      0.5364           15.62    
   4252      1     57      3      0.4541           15.62    
   4253      1     57      4      0.3704           15.62    
   4254      1     57      5      0.3153           15.62    
   4255      1     57      6      0.2940           15.62    
   4256      1     57      7      0.2853           15.62    
   4257      1     57      8      0.2832           15.62    
   4258      1     57      9      0.2837           15.62    
   4259      1     57     10      0.2851           15.62    
   4260      1     57     11      0.2857           15.62    
   4261      1     57     12      0.2836           15.62    
   4262      1     57     13      0.2715           15.62    
   4263      1     57     14      0.2540           15.62    
   4264      1     57     15      0.2299           15.62    
   4265      1     57     16      0.2093           15.62    
   4266      1     57     17      0.1891           15.62    
   4267      1     57     18      0.1748           15.62    
   4268      1     57     19      0.1672           15.62    
   4269      1     57     20      0.1603           15.62    
   4270      1     57     21      0.1507           15.62    
   4271      1     57     22      0.1400           15.62    
   4272      1     57     23      0.1263           15.62    
   4273      1     57     24      0.1140           15.62    
   4274      1     57     25      0.9739E-01       15.62    
   4275      1     57     58       0.000           15.62    
   4276      1     57     59       0.000           15.62    
   4277      1     57     60       0.000           15.62    
   4278      1     57     61       0.000           15.62    
   4279      1     57     62       0.000           15.62    
   4280      1     57     63       0.000           15.62    
   4281      1     57     64       0.000           15.62    
   4282      1     57     65       0.000           15.62    
   4283      1     57     66       0.000           15.62    
   4284      1     57     67       0.000           15.62    
   4285      1     57     68       0.000           15.62    
   4286      1     57     69       0.000           15.62    
   4287      1     57     70       0.000           15.62    
   4288      1     57     71       0.000           15.62    
   4289      1     57     72       0.000           15.62    
   4290      1     57     73       0.000           15.62    
   4291      1     57     74       0.000           15.62    
   4292      1     57     75       0.000           15.62    
   4293      1     57     76       0.000           15.62    
   4294      1     57     77       0.000           15.62    
   4295      1     57     78       0.000           15.62    
   4296      1     57     79       0.000           15.62    
   4297      1     57     80       0.000           15.62    
   4298      1     57     81      0.2049E-01       15.62    
   4299      1     57     82      0.4031E-01       15.62    
   4300      1     57     83      0.5477E-01       15.62    
   4301      1     57     84      0.7030E-01       15.62    
   4302      1     57     85      0.8112E-01       15.62    
   4303      1     57     86      0.8956E-01       15.62    
   4304      1     57     87      0.9740E-01       15.62    
   4305      1     57     88      0.1041           15.62    
   4306      1     57     89      0.1119           15.62    
   4307      1     57     90      0.1193           15.62    
   4308      1     57     91      0.1253           15.62    
   4309      1     57     92      0.1307           15.62    
   4310      1     57     93      0.1343           15.62    
   4311      1     57     94      0.1375           15.62    
   4312      1     57     95      0.1399           15.62    
   4313      1     57     96      0.1416           15.62    
   4314      1     57     97      0.1430           15.62    
   4315      1     57     98      0.1441           15.62    
   4316      1     57     99      0.1452           15.62    
   4317      1     57    100      0.1453           15.62    
   4318      1     58      1      0.6357           15.62    
   4319      1     58      2      0.5398           15.62    
   4320      1     58      3      0.4534           15.62    
   4321      1     58      4      0.3633           15.62    
   4322      1     58      5      0.3074           15.62    
   4323      1     58      6      0.2914           15.62    
   4324      1     58      7      0.2860           15.62    
   4325      1     58      8      0.2850           15.62    
   4326      1     58      9      0.2852           15.62    
   4327      1     58     10      0.2853           15.62    
   4328      1     58     11      0.2844           15.62    
   4329      1     58     12      0.2801           15.62    
   4330      1     58     13      0.2674           15.62    
   4331      1     58     14      0.2503           15.62    
   4332      1     58     15      0.2270           15.62    
   4333      1     58     16      0.2072           15.62    
   4334      1     58     17      0.1894           15.62    
   4335      1     58     18      0.1784           15.62    
   4336      1     58     19      0.1751           15.62    
   4337      1     58     20      0.1748           15.62    
   4338      1     58     21      0.1637           15.62    
   4339      1     58     22      0.1485           15.62    
   4340      1     58     23      0.1314           15.62    
   4341      1     58     24      0.1192           15.62    
   4342      1     58     25      0.1056           15.62    
   4343      1     58     26      0.8914E-01       15.62    
   4344      1     58     58       0.000           15.62    
   4345      1     58     59       0.000           15.62    
   4346      1     58     60       0.000           15.62    
   4347      1     58     61       0.000           15.62    
   4348      1     58     62       0.000           15.62    
   4349      1     58     63       0.000           15.62    
   4350      1     58     64       0.000           15.62    
   4351      1     58     65       0.000           15.62    
   4352      1     58     66       0.000           15.62    
   4353      1     58     67       0.000           15.62    
   4354      1     58     68       0.000           15.62    
   4355      1     58     69       0.000           15.62    
   4356      1     58     70       0.000           15.62    
   4357      1     58     71       0.000           15.62    
   4358      1     58     72       0.000           15.62    
   4359      1     58     73       0.000           15.62    
   4360      1     58     74       0.000           15.62    
   4361      1     58     75       0.000           15.62    
   4362      1     58     76       0.000           15.62    
   4363      1     58     77       0.000           15.62    
   4364      1     58     78       0.000           15.62    
   4365      1     58     79       0.000           15.62    
   4366      1     58     80       0.000           15.62    
   4367      1     58     81      0.2124E-01       15.62    
   4368      1     58     82      0.4235E-01       15.62    
   4369      1     58     83      0.5872E-01       15.62    
   4370      1     58     84      0.7556E-01       15.62    
   4371      1     58     85      0.8743E-01       15.62    
   4372      1     58     86      0.9713E-01       15.62    
   4373      1     58     87      0.1062           15.62    
   4374      1     58     88      0.1138           15.62    
   4375      1     58     89      0.1227           15.62    
   4376      1     58     90      0.1315           15.62    
   4377      1     58     91      0.1380           15.62    
   4378      1     58     92      0.1443           15.62    
   4379      1     58     93      0.1488           15.62    
   4380      1     58     94      0.1527           15.62    
   4381      1     58     95      0.1560           15.62    
   4382      1     58     96      0.1583           15.62    
   4383      1     58     97      0.1603           15.62    
   4384      1     58     98      0.1617           15.62    
   4385      1     58     99      0.1629           15.62    
   4386      1     58    100      0.1629           15.62    
   4387      1     59      1      0.6494           15.62    
   4388      1     59      2      0.5567           15.62    
   4389      1     59      3      0.4732           15.62    
   4390      1     59      4      0.3870           15.62    
   4391      1     59      5      0.3298           15.62    
   4392      1     59      6      0.3085           15.62    
   4393      1     59      7      0.2980           15.62    
   4394      1     59      8      0.2934           15.62    
   4395      1     59      9      0.2909           15.62    
   4396      1     59     10      0.2882           15.62    
   4397      1     59     11      0.2849           15.62    
   4398      1     59     12      0.2776           15.62    
   4399      1     59     13      0.2639           15.62    
   4400      1     59     14      0.2469           15.62    
   4401      1     59     15      0.2236           15.62    
   4402      1     59     16      0.2030           15.62    
   4403      1     59     17      0.1850           15.62    
   4404      1     59     18      0.1755           15.62    
   4405      1     59     19      0.1749           15.62    
   4406      1     59     20      0.1754           15.62    
   4407      1     59     21      0.1638           15.62    
   4408      1     59     22      0.1476           15.62    
   4409      1     59     23      0.1293           15.62    
   4410      1     59     24      0.1181           15.62    
   4411      1     59     25      0.1070           15.62    
   4412      1     59     26      0.9443E-01       15.62    
   4413      1     59     27      0.7971E-01       15.62    
   4414      1     59     28      0.5402E-01       15.62    
   4415      1     59     57       0.000           15.62    
   4416      1     59     58       0.000           15.62    
   4417      1     59     59       0.000           15.62    
   4418      1     59     60       0.000           15.62    
   4419      1     59     61       0.000           15.62    
   4420      1     59     62       0.000           15.62    
   4421      1     59     63       0.000           15.62    
   4422      1     59     64       0.000           15.62    
   4423      1     59     65       0.000           15.62    
   4424      1     59     66       0.000           15.62    
   4425      1     59     67       0.000           15.62    
   4426      1     59     68       0.000           15.62    
   4427      1     59     69       0.000           15.62    
   4428      1     59     70       0.000           15.62    
   4429      1     59     71       0.000           15.62    
   4430      1     59     72       0.000           15.62    
   4431      1     59     73       0.000           15.62    
   4432      1     59     74       0.000           15.62    
   4433      1     59     75       0.000           15.62    
   4434      1     59     76       0.000           15.62    
   4435      1     59     77       0.000           15.62    
   4436      1     59     78       0.000           15.62    
   4437      1     59     79       0.000           15.62    
   4438      1     59     80      0.1650E-02       15.62    
   4439      1     59     81      0.2706E-01       15.62    
   4440      1     59     82      0.4928E-01       15.62    
   4441      1     59     83      0.6667E-01       15.62    
   4442      1     59     84      0.8386E-01       15.62    
   4443      1     59     85      0.9644E-01       15.62    
   4444      1     59     86      0.1079           15.62    
   4445      1     59     87      0.1176           15.62    
   4446      1     59     88      0.1263           15.62    
   4447      1     59     89      0.1368           15.62    
   4448      1     59     90      0.1469           15.62    
   4449      1     59     91      0.1541           15.62    
   4450      1     59     92      0.1614           15.62    
   4451      1     59     93      0.1668           15.62    
   4452      1     59     94      0.1716           15.62    
   4453      1     59     95      0.1757           15.62    
   4454      1     59     96      0.1789           15.62    
   4455      1     59     97      0.1816           15.62    
   4456      1     59     98      0.1835           15.62    
   4457      1     59     99      0.1850           15.62    
   4458      1     59    100      0.1851           15.62    
   4459      1     60      1      0.6688           15.62    
   4460      1     60      2      0.5820           15.62    
   4461      1     60      3      0.5054           15.62    
   4462      1     60      4      0.4270           15.62    
   4463      1     60      5      0.3690           15.62    
   4464      1     60      6      0.3378           15.62    
   4465      1     60      7      0.3171           15.62    
   4466      1     60      8      0.3057           15.62    
   4467      1     60      9      0.2989           15.62    
   4468      1     60     10      0.2927           15.62    
   4469      1     60     11      0.2873           15.62    
   4470      1     60     12      0.2784           15.62    
   4471      1     60     13      0.2638           15.62    
   4472      1     60     14      0.2457           15.62    
   4473      1     60     15      0.2212           15.62    
   4474      1     60     16      0.1994           15.62    
   4475      1     60     17      0.1803           15.62    
   4476      1     60     18      0.1710           15.62    
   4477      1     60     19      0.1713           15.62    
   4478      1     60     20      0.1696           15.62    
   4479      1     60     21      0.1578           15.62    
   4480      1     60     22      0.1417           15.62    
   4481      1     60     23      0.1228           15.62    
   4482      1     60     24      0.1137           15.62    
   4483      1     60     25      0.1050           15.62    
   4484      1     60     26      0.9487E-01       15.62    
   4485      1     60     27      0.8268E-01       15.62    
   4486      1     60     28      0.6146E-01       15.62    
   4487      1     60     58       0.000           15.62    
   4488      1     60     59       0.000           15.62    
   4489      1     60     60       0.000           15.62    
   4490      1     60     61       0.000           15.62    
   4491      1     60     62       0.000           15.62    
   4492      1     60     63       0.000           15.62    
   4493      1     60     64       0.000           15.62    
   4494      1     60     65       0.000           15.62    
   4495      1     60     66       0.000           15.62    
   4496      1     60     67       0.000           15.62    
   4497      1     60     68       0.000           15.62    
   4498      1     60     69       0.000           15.62    
   4499      1     60     70       0.000           15.62    
   4500      1     60     71       0.000           15.62    
   4501      1     60     72       0.000           15.62    
   4502      1     60     73       0.000           15.62    
   4503      1     60     74       0.000           15.62    
   4504      1     60     75       0.000           15.62    
   4505      1     60     76       0.000           15.62    
   4506      1     60     77       0.000           15.62    
   4507      1     60     78       0.000           15.62    
   4508      1     60     79       0.000           15.62    
   4509      1     60     80      0.1271E-01       15.62    
   4510      1     60     81      0.3838E-01       15.62    
   4511      1     60     82      0.6108E-01       15.62    
   4512      1     60     83      0.7876E-01       15.62    
   4513      1     60     84      0.9578E-01       15.62    
   4514      1     60     85      0.1085           15.62    
   4515      1     60     86      0.1211           15.62    
   4516      1     60     87      0.1311           15.62    
   4517      1     60     88      0.1402           15.62    
   4518      1     60     89      0.1514           15.62    
   4519      1     60     90      0.1617           15.62    
   4520      1     60     91      0.1691           15.62    
   4521      1     60     92      0.1767           15.62    
   4522      1     60     93      0.1824           15.62    
   4523      1     60     94      0.1876           15.62    
   4524      1     60     95      0.1923           15.62    
   4525      1     60     96      0.1959           15.62    
   4526      1     60     97      0.1991           15.62    
   4527      1     60     98      0.2014           15.62    
   4528      1     60     99      0.2032           15.62    
   4529      1     60    100      0.2035           15.62    
   4530      1     61      1      0.6976           15.62    
   4531      1     61      2      0.6178           15.62    
   4532      1     61      3      0.5477           15.62    
   4533      1     61      4      0.4742           15.62    
   4534      1     61      5      0.4134           15.62    
   4535      1     61      6      0.3726           15.62    
   4536      1     61      7      0.3405           15.62    
   4537      1     61      8      0.3211           15.62    
   4538      1     61      9      0.3091           15.62    
   4539      1     61     10      0.2979           15.62    
   4540      1     61     11      0.2905           15.62    
   4541      1     61     12      0.2818           15.62    
   4542      1     61     13      0.2666           15.62    
   4543      1     61     14      0.2464           15.62    
   4544      1     61     15      0.2205           15.62    
   4545      1     61     16      0.1984           15.62    
   4546      1     61     17      0.1790           15.62    
   4547      1     61     18      0.1690           15.62    
   4548      1     61     19      0.1679           15.62    
   4549      1     61     20      0.1635           15.62    
   4550      1     61     21      0.1507           15.62    
   4551      1     61     22      0.1343           15.62    
   4552      1     61     23      0.1152           15.62    
   4553      1     61     24      0.1078           15.62    
   4554      1     61     25      0.1013           15.62    
   4555      1     61     26      0.9303E-01       15.62    
   4556      1     61     27      0.8277E-01       15.62    
   4557      1     61     28      0.6609E-01       15.62    
   4558      1     61     58       0.000           15.62    
   4559      1     61     59       0.000           15.62    
   4560      1     61     60       0.000           15.62    
   4561      1     61     61       0.000           15.62    
   4562      1     61     62       0.000           15.62    
   4563      1     61     63       0.000           15.62    
   4564      1     61     64       0.000           15.62    
   4565      1     61     65       0.000           15.62    
   4566      1     61     66       0.000           15.62    
   4567      1     61     67       0.000           15.62    
   4568      1     61     68       0.000           15.62    
   4569      1     61     69       0.000           15.62    
   4570      1     61     70       0.000           15.62    
   4571      1     61     71       0.000           15.62    
   4572      1     61     72       0.000           15.62    
   4573      1     61     73       0.000           15.62    
   4574      1     61     74       0.000           15.62    
   4575      1     61     75       0.000           15.62    
   4576      1     61     76       0.000           15.62    
   4577      1     61     77       0.000           15.62    
   4578      1     61     78       0.000           15.62    
   4579      1     61     79      0.3636E-02       15.62    
   4580      1     61     80      0.3003E-01       15.62    
   4581      1     61     81      0.5554E-01       15.62    
   4582      1     61     82      0.7794E-01       15.62    
   4583      1     61     83      0.9543E-01       15.62    
   4584      1     61     84      0.1124           15.62    
   4585      1     61     85      0.1255           15.62    
   4586      1     61     86      0.1392           15.62    
   4587      1     61     87      0.1499           15.62    
   4588      1     61     88      0.1593           15.62    
   4589      1     61     89      0.1704           15.62    
   4590      1     61     90      0.1802           15.62    
   4591      1     61     91      0.1875           15.62    
   4592      1     61     92      0.1949           15.62    
   4593      1     61     93      0.2007           15.62    
   4594      1     61     94      0.2062           15.62    
   4595      1     61     95      0.2114           15.62    
   4596      1     61     96      0.2155           15.62    
   4597      1     61     97      0.2193           15.62    
   4598      1     61     98      0.2220           15.62    
   4599      1     61     99      0.2241           15.62    
   4600      1     61    100      0.2246           15.62    
   4601      1     62      1      0.7240           15.62    
   4602      1     62      2      0.6493           15.62    
   4603      1     62      3      0.5830           15.62    
   4604      1     62      4      0.5107           15.62    
   4605      1     62      5      0.4463           15.62    
   4606      1     62      6      0.3983           15.62    
   4607      1     62      7      0.3567           15.62    
   4608      1     62      8      0.3291           15.62    
   4609      1     62      9      0.3119           15.62    
   4610      1     62     10      0.2971           15.62    
   4611      1     62     11      0.2883           15.62    
   4612      1     62     12      0.2802           15.62    
   4613      1     62     13      0.2656           15.62    
   4614      1     62     14      0.2444           15.62    
   4615      1     62     15      0.2195           15.62    
   4616      1     62     16      0.2002           15.62    
   4617      1     62     17      0.1834           15.62    
   4618      1     62     18      0.1738           15.62    
   4619      1     62     19      0.1698           15.62    
   4620      1     62     20      0.1632           15.62    
   4621      1     62     21      0.1495           15.62    
   4622      1     62     22      0.1331           15.62    
   4623      1     62     23      0.1147           15.62    
   4624      1     62     24      0.1041           15.62    
   4625      1     62     25      0.9581E-01       15.62    
   4626      1     62     26      0.8906E-01       15.62    
   4627      1     62     27      0.8189E-01       15.62    
   4628      1     62     28      0.7195E-01       15.62    
   4629      1     62     29      0.5671E-01       15.62    
   4630      1     62     58       0.000           15.62    
   4631      1     62     59       0.000           15.62    
   4632      1     62     60       0.000           15.62    
   4633      1     62     61       0.000           15.62    
   4634      1     62     62       0.000           15.62    
   4635      1     62     63       0.000           15.62    
   4636      1     62     64       0.000           15.62    
   4637      1     62     65       0.000           15.62    
   4638      1     62     66       0.000           15.62    
   4639      1     62     67       0.000           15.62    
   4640      1     62     68       0.000           15.62    
   4641      1     62     69       0.000           15.62    
   4642      1     62     70       0.000           15.62    
   4643      1     62     71       0.000           15.62    
   4644      1     62     72       0.000           15.62    
   4645      1     62     73       0.000           15.62    
   4646      1     62     74       0.000           15.62    
   4647      1     62     75       0.000           15.62    
   4648      1     62     76       0.000           15.62    
   4649      1     62     77       0.000           15.62    
   4650      1     62     78       0.000           15.62    
   4651      1     62     79      0.2687E-01       15.62    
   4652      1     62     80      0.5086E-01       15.62    
   4653      1     62     81      0.7451E-01       15.62    
   4654      1     62     82      0.9576E-01       15.62    
   4655      1     62     83      0.1131           15.62    
   4656      1     62     84      0.1301           15.62    
   4657      1     62     85      0.1434           15.62    
   4658      1     62     86      0.1578           15.62    
   4659      1     62     87      0.1699           15.62    
   4660      1     62     88      0.1792           15.62    
   4661      1     62     89      0.1893           15.62    
   4662      1     62     90      0.1978           15.62    
   4663      1     62     91      0.2042           15.62    
   4664      1     62     92      0.2111           15.62    
   4665      1     62     93      0.2166           15.62    
   4666      1     62     94      0.2222           15.62    
   4667      1     62     95      0.2277           15.62    
   4668      1     62     96      0.2323           15.62    
   4669      1     62     97      0.2367           15.62    
   4670      1     62     98      0.2399           15.62    
   4671      1     62     99      0.2420           15.62    
   4672      1     62    100      0.2425           15.62    
   4673      1     63      1      0.7647           15.62    
   4674      1     63      2      0.6953           15.62    
   4675      1     63      3      0.6322           15.62    
   4676      1     63      4      0.5590           15.62    
   4677      1     63      5      0.4875           15.62    
   4678      1     63      6      0.4283           15.62    
   4679      1     63      7      0.3718           15.62    
   4680      1     63      8      0.3312           15.62    
   4681      1     63      9      0.3063           15.62    
   4682      1     63     10      0.2882           15.62    
   4683      1     63     11      0.2781           15.62    
   4684      1     63     12      0.2691           15.62    
   4685      1     63     13      0.2554           15.62    
   4686      1     63     14      0.2363           15.62    
   4687      1     63     15      0.2153           15.62    
   4688      1     63     16      0.2003           15.62    
   4689      1     63     17      0.1874           15.62    
   4690      1     63     18      0.1789           15.62    
   4691      1     63     19      0.1732           15.62    
   4692      1     63     20      0.1645           15.62    
   4693      1     63     21      0.1499           15.62    
   4694      1     63     22      0.1328           15.62    
   4695      1     63     23      0.1128           15.62    
   4696      1     63     24      0.9874E-01       15.62    
   4697      1     63     25      0.8765E-01       15.62    
   4698      1     63     26      0.8152E-01       15.62    
   4699      1     63     27      0.7855E-01       15.62    
   4700      1     63     28      0.7447E-01       15.62    
   4701      1     63     29      0.6772E-01       15.62    
   4702      1     63     58       0.000           15.62    
   4703      1     63     59       0.000           15.62    
   4704      1     63     60       0.000           15.62    
   4705      1     63     61       0.000           15.62    
   4706      1     63     62       0.000           15.62    
   4707      1     63     63       0.000           15.62    
   4708      1     63     64       0.000           15.62    
   4709      1     63     65       0.000           15.62    
   4710      1     63     66       0.000           15.62    
   4711      1     63     67       0.000           15.62    
   4712      1     63     68       0.000           15.62    
   4713      1     63     69       0.000           15.62    
   4714      1     63     70       0.000           15.62    
   4715      1     63     71       0.000           15.62    
   4716      1     63     72       0.000           15.62    
   4717      1     63     73       0.000           15.62    
   4718      1     63     74       0.000           15.62    
   4719      1     63     75       0.000           15.62    
   4720      1     63     76       0.000           15.62    
   4721      1     63     77       0.000           15.62    
   4722      1     63     78      0.3195E-01       15.62    
   4723      1     63     79      0.5937E-01       15.62    
   4724      1     63     80      0.7975E-01       15.62    
   4725      1     63     81      0.1004           15.62    
   4726      1     63     82      0.1196           15.62    
   4727      1     63     83      0.1355           15.62    
   4728      1     63     84      0.1520           15.62    
   4729      1     63     85      0.1655           15.62    
   4730      1     63     86      0.1807           15.62    
   4731      1     63     87      0.1938           15.62    
   4732      1     63     88      0.2029           15.62    
   4733      1     63     89      0.2111           15.62    
   4734      1     63     90      0.2174           15.62    
   4735      1     63     91      0.2226           15.62    
   4736      1     63     92      0.2287           15.62    
   4737      1     63     93      0.2339           15.62    
   4738      1     63     94      0.2395           15.62    
   4739      1     63     95      0.2455           15.62    
   4740      1     63     96      0.2505           15.62    
   4741      1     63     97      0.2555           15.62    
   4742      1     63     98      0.2592           15.62    
   4743      1     63     99      0.2613           15.62    
   4744      1     63    100      0.2618           15.62    
   4745      1     64      1      0.8053           15.62    
   4746      1     64      2      0.7400           15.62    
   4747      1     64      3      0.6788           15.62    
   4748      1     64      4      0.6036           15.62    
   4749      1     64      5      0.5239           15.62    
   4750      1     64      6      0.4526           15.62    
   4751      1     64      7      0.3795           15.62    
   4752      1     64      8      0.3251           15.62    
   4753      1     64      9      0.2936           15.62    
   4754      1     64     10      0.2744           15.62    
   4755      1     64     11      0.2630           15.62    
   4756      1     64     12      0.2510           15.62    
   4757      1     64     13      0.2376           15.62    
   4758      1     64     14      0.2234           15.62    
   4759      1     64     15      0.2076           15.62    
   4760      1     64     16      0.1967           15.62    
   4761      1     64     17      0.1875           15.62    
   4762      1     64     18      0.1814           15.62    
   4763      1     64     19      0.1768           15.62    
   4764      1     64     20      0.1680           15.62    
   4765      1     64     21      0.1524           15.62    
   4766      1     64     22      0.1333           15.62    
   4767      1     64     23      0.1095           15.62    
   4768      1     64     24      0.9132E-01       15.62    
   4769      1     64     25      0.7684E-01       15.62    
   4770      1     64     26      0.7106E-01       15.62    
   4771      1     64     27      0.7188E-01       15.62    
   4772      1     64     28      0.7394E-01       15.62    
   4773      1     64     29      0.7391E-01       15.62    
   4774      1     64     30      0.6714E-01       15.62    
   4775      1     64     58       0.000           15.62    
   4776      1     64     59       0.000           15.62    
   4777      1     64     60       0.000           15.62    
   4778      1     64     61       0.000           15.62    
   4779      1     64     62       0.000           15.62    
   4780      1     64     63       0.000           15.62    
   4781      1     64     64       0.000           15.62    
   4782      1     64     65       0.000           15.62    
   4783      1     64     66       0.000           15.62    
   4784      1     64     67       0.000           15.62    
   4785      1     64     68       0.000           15.62    
   4786      1     64     69       0.000           15.62    
   4787      1     64     70       0.000           15.62    
   4788      1     64     71       0.000           15.62    
   4789      1     64     72       0.000           15.62    
   4790      1     64     73       0.000           15.62    
   4791      1     64     74       0.000           15.62    
   4792      1     64     75       0.000           15.62    
   4793      1     64     76      0.2230E-01       15.62    
   4794      1     64     77      0.4549E-01       15.62    
   4795      1     64     78      0.7268E-01       15.62    
   4796      1     64     79      0.9491E-01       15.62    
   4797      1     64     80      0.1114           15.62    
   4798      1     64     81      0.1289           15.62    
   4799      1     64     82      0.1457           15.62    
   4800      1     64     83      0.1592           15.62    
   4801      1     64     84      0.1739           15.62    
   4802      1     64     85      0.1874           15.62    
   4803      1     64     86      0.2027           15.62    
   4804      1     64     87      0.2166           15.62    
   4805      1     64     88      0.2251           15.62    
   4806      1     64     89      0.2313           15.62    
   4807      1     64     90      0.2360           15.62    
   4808      1     64     91      0.2402           15.62    
   4809      1     64     92      0.2454           15.62    
   4810      1     64     93      0.2502           15.62    
   4811      1     64     94      0.2557           15.62    
   4812      1     64     95      0.2617           15.62    
   4813      1     64     96      0.2668           15.62    
   4814      1     64     97      0.2718           15.62    
   4815      1     64     98      0.2755           15.62    
   4816      1     64     99      0.2779           15.62    
   4817      1     64    100      0.2789           15.62    
   4818      1     65      1      0.8433           15.62    
   4819      1     65      2      0.7804           15.62    
   4820      1     65      3      0.7192           15.62    
   4821      1     65      4      0.6415           15.62    
   4822      1     65      5      0.5560           15.62    
   4823      1     65      6      0.4755           15.62    
   4824      1     65      7      0.3853           15.62    
   4825      1     65      8      0.3184           15.62    
   4826      1     65      9      0.2833           15.62    
   4827      1     65     10      0.2655           15.62    
   4828      1     65     11      0.2530           15.62    
   4829      1     65     12      0.2388           15.62    
   4830      1     65     13      0.2247           15.62    
   4831      1     65     14      0.2122           15.62    
   4832      1     65     15      0.1992           15.62    
   4833      1     65     16      0.1906           15.62    
   4834      1     65     17      0.1839           15.62    
   4835      1     65     18      0.1807           15.62    
   4836      1     65     19      0.1793           15.62    
   4837      1     65     20      0.1725           15.62    
   4838      1     65     21      0.1564           15.62    
   4839      1     65     22      0.1344           15.62    
   4840      1     65     23      0.1070           15.62    
   4841      1     65     24      0.8469E-01       15.62    
   4842      1     65     25      0.6673E-01       15.62    
   4843      1     65     26      0.6113E-01       15.62    
   4844      1     65     27      0.6565E-01       15.62    
   4845      1     65     28      0.7254E-01       15.62    
   4846      1     65     29      0.7758E-01       15.62    
   4847      1     65     30      0.7604E-01       15.62    
   4848      1     65     31      0.5966E-01       15.62    
   4849      1     65     58       0.000           15.62    
   4850      1     65     59       0.000           15.62    
   4851      1     65     60       0.000           15.62    
   4852      1     65     61       0.000           15.62    
   4853      1     65     62       0.000           15.62    
   4854      1     65     63       0.000           15.62    
   4855      1     65     64       0.000           15.62    
   4856      1     65     65       0.000           15.62    
   4857      1     65     66       0.000           15.62    
   4858      1     65     67       0.000           15.62    
   4859      1     65     68       0.000           15.62    
   4860      1     65     69       0.000           15.62    
   4861      1     65     70       0.000           15.62    
   4862      1     65     71       0.000           15.62    
   4863      1     65     72       0.000           15.62    
   4864      1     65     73       0.000           15.62    
   4865      1     65     74       0.000           15.62    
   4866      1     65     75      0.1949E-01       15.62    
   4867      1     65     76      0.7660E-01       15.62    
   4868      1     65     77      0.9054E-01       15.62    
   4869      1     65     78      0.1097           15.62    
   4870      1     65     79      0.1260           15.62    
   4871      1     65     80      0.1387           15.62    
   4872      1     65     81      0.1538           15.62    
   4873      1     65     82      0.1687           15.62    
   4874      1     65     83      0.1797           15.62    
   4875      1     65     84      0.1924           15.62    
   4876      1     65     85      0.2052           15.62    
   4877      1     65     86      0.2200           15.62    
   4878      1     65     87      0.2335           15.62    
   4879      1     65     88      0.2415           15.62    
   4880      1     65     89      0.2465           15.62    
   4881      1     65     90      0.2506           15.62    
   4882      1     65     91      0.2542           15.62    
   4883      1     65     92      0.2589           15.62    
   4884      1     65     93      0.2634           15.62    
   4885      1     65     94      0.2688           15.62    
   4886      1     65     95      0.2745           15.62    
   4887      1     65     96      0.2797           15.62    
   4888      1     65     97      0.2849           15.62    
   4889      1     65     98      0.2884           15.62    
   4890      1     65     99      0.2909           15.62    
   4891      1     65    100      0.2919           15.62    
   4892      1     66      1      0.8893           15.62    
   4893      1     66      2      0.8288           15.62    
   4894      1     66      3      0.7675           15.62    
   4895      1     66      4      0.6887           15.62    
   4896      1     66      5      0.6005           15.62    
   4897      1     66      6      0.5151           15.62    
   4898      1     66      7      0.4139           15.62    
   4899      1     66      8      0.3369           15.62    
   4900      1     66      9      0.2959           15.62    
   4901      1     66     10      0.2720           15.62    
   4902      1     66     11      0.2530           15.62    
   4903      1     66     12      0.2326           15.62    
   4904      1     66     13      0.2150           15.62    
   4905      1     66     14      0.2025           15.62    
   4906      1     66     15      0.1906           15.62    
   4907      1     66     16      0.1828           15.62    
   4908      1     66     17      0.1773           15.62    
   4909      1     66     18      0.1770           15.62    
   4910      1     66     19      0.1794           15.62    
   4911      1     66     20      0.1761           15.62    
   4912      1     66     21      0.1606           15.62    
   4913      1     66     22      0.1362           15.62    
   4914      1     66     23      0.1063           15.62    
   4915      1     66     24      0.8042E-01       15.62    
   4916      1     66     25      0.5877E-01       15.62    
   4917      1     66     26      0.5290E-01       15.62    
   4918      1     66     27      0.6109E-01       15.62    
   4919      1     66     28      0.7134E-01       15.62    
   4920      1     66     29      0.8049E-01       15.62    
   4921      1     66     30      0.8453E-01       15.62    
   4922      1     66     31      0.7747E-01       15.62    
   4923      1     66     58       0.000           15.62    
   4924      1     66     59       0.000           15.62    
   4925      1     66     60       0.000           15.62    
   4926      1     66     61       0.000           15.62    
   4927      1     66     62       0.000           15.62    
   4928      1     66     63       0.000           15.62    
   4929      1     66     64       0.000           15.62    
   4930      1     66     65       0.000           15.62    
   4931      1     66     66       0.000           15.62    
   4932      1     66     67       0.000           15.62    
   4933      1     66     68       0.000           15.62    
   4934      1     66     69       0.000           15.62    
   4935      1     66     70       0.000           15.62    
   4936      1     66     71       0.000           15.62    
   4937      1     66     72       0.000           15.62    
   4938      1     66     73       0.000           15.62    
   4939      1     66     74      0.1345E-01       15.62    
   4940      1     66     75      0.6491E-01       15.62    
   4941      1     66     76      0.1138           15.62    
   4942      1     66     77      0.1313           15.62    
   4943      1     66     78      0.1469           15.62    
   4944      1     66     79      0.1595           15.62    
   4945      1     66     80      0.1696           15.62    
   4946      1     66     81      0.1816           15.62    
   4947      1     66     82      0.1930           15.62    
   4948      1     66     83      0.2018           15.62    
   4949      1     66     84      0.2123           15.62    
   4950      1     66     85      0.2237           15.62    
   4951      1     66     86      0.2367           15.62    
   4952      1     66     87      0.2476           15.62    
   4953      1     66     88      0.2547           15.62    
   4954      1     66     89      0.2601           15.62    
   4955      1     66     90      0.2645           15.62    
   4956      1     66     91      0.2680           15.62    
   4957      1     66     92      0.2724           15.62    
   4958      1     66     93      0.2766           15.62    
   4959      1     66     94      0.2818           15.62    
   4960      1     66     95      0.2876           15.62    
   4961      1     66     96      0.2929           15.62    
   4962      1     66     97      0.2984           15.62    
   4963      1     66     98      0.3019           15.62    
   4964      1     66     99      0.3039           15.62    
   4965      1     66    100      0.3045           15.62    
   4966      1     67      1      0.9378           15.62    
   4967      1     67      2      0.8798           15.62    
   4968      1     67      3      0.8201           15.62    
   4969      1     67      4      0.7431           15.62    
   4970      1     67      5      0.6568           15.62    
   4971      1     67      6      0.5729           15.62    
   4972      1     67      7      0.4731           15.62    
   4973      1     67      8      0.3918           15.62    
   4974      1     67      9      0.3410           15.62    
   4975      1     67     10      0.2998           15.62    
   4976      1     67     11      0.2668           15.62    
   4977      1     67     12      0.2348           15.62    
   4978      1     67     13      0.2115           15.62    
   4979      1     67     14      0.1983           15.62    
   4980      1     67     15      0.1866           15.62    
   4981      1     67     16      0.1779           15.62    
   4982      1     67     17      0.1716           15.62    
   4983      1     67     18      0.1729           15.62    
   4984      1     67     19      0.1760           15.62    
   4985      1     67     20      0.1729           15.62    
   4986      1     67     21      0.1588           15.62    
   4987      1     67     22      0.1373           15.62    
   4988      1     67     23      0.1092           15.62    
   4989      1     67     24      0.8535E-01       15.62    
   4990      1     67     25      0.6494E-01       15.62    
   4991      1     67     26      0.5779E-01       15.62    
   4992      1     67     27      0.6287E-01       15.62    
   4993      1     67     28      0.7176E-01       15.62    
   4994      1     67     29      0.8205E-01       15.62    
   4995      1     67     30      0.8959E-01       15.62    
   4996      1     67     31      0.8928E-01       15.62    
   4997      1     67     32      0.8139E-01       15.62    
   4998      1     67     58       0.000           15.62    
   4999      1     67     59       0.000           15.62    
   5000      1     67     60       0.000           15.62    
   5001      1     67     61       0.000           15.62    
   5002      1     67     62       0.000           15.62    
   5003      1     67     63       0.000           15.62    
   5004      1     67     64       0.000           15.62    
   5005      1     67     65       0.000           15.62    
   5006      1     67     66       0.000           15.62    
   5007      1     67     67       0.000           15.62    
   5008      1     67     68       0.000           15.62    
   5009      1     67     69       0.000           15.62    
   5010      1     67     70       0.000           15.62    
   5011      1     67     71       0.000           15.62    
   5012      1     67     72       0.000           15.62    
   5013      1     67     73      0.1480E-01       15.62    
   5014      1     67     74      0.6347E-01       15.62    
   5015      1     67     75      0.1037           15.62    
   5016      1     67     76      0.1422           15.62    
   5017      1     67     77      0.1633           15.62    
   5018      1     67     78      0.1782           15.62    
   5019      1     67     79      0.1892           15.62    
   5020      1     67     80      0.1978           15.62    
   5021      1     67     81      0.2072           15.62    
   5022      1     67     82      0.2164           15.62    
   5023      1     67     83      0.2231           15.62    
   5024      1     67     84      0.2308           15.62    
   5025      1     67     85      0.2400           15.62    
   5026      1     67     86      0.2510           15.62    
   5027      1     67     87      0.2601           15.62    
   5028      1     67     88      0.2662           15.62    
   5029      1     67     89      0.2714           15.62    
   5030      1     67     90      0.2756           15.62    
   5031      1     67     91      0.2790           15.62    
   5032      1     67     92      0.2833           15.62    
   5033      1     67     93      0.2874           15.62    
   5034      1     67     94      0.2925           15.62    
   5035      1     67     95      0.2982           15.62    
   5036      1     67     96      0.3037           15.62    
   5037      1     67     97      0.3095           15.62    
   5038      1     67     98      0.3132           15.62    
   5039      1     67     99      0.3144           15.62    
   5040      1     67    100      0.3145           15.62    
   5041      1     68      1      0.9804           15.62    
   5042      1     68      2      0.9247           15.62    
   5043      1     68      3      0.8686           15.62    
   5044      1     68      4      0.7966           15.62    
   5045      1     68      5      0.7156           15.62    
   5046      1     68      6      0.6375           15.62    
   5047      1     68      7      0.5474           15.62    
   5048      1     68      8      0.4666           15.62    
   5049      1     68      9      0.4044           15.62    
   5050      1     68     10      0.3407           15.62    
   5051      1     68     11      0.2907           15.62    
   5052      1     68     12      0.2450           15.62    
   5053      1     68     13      0.2151           15.62    
   5054      1     68     14      0.2005           15.62    
   5055      1     68     15      0.1885           15.62    
   5056      1     68     16      0.1797           15.62    
   5057      1     68     17      0.1732           15.62    
   5058      1     68     18      0.1745           15.62    
   5059      1     68     19      0.1764           15.62    
   5060      1     68     20      0.1722           15.62    
   5061      1     68     21      0.1587           15.62    
   5062      1     68     22      0.1395           15.62    
   5063      1     68     23      0.1139           15.62    
   5064      1     68     24      0.9218E-01       15.62    
   5065      1     68     25      0.7264E-01       15.62    
   5066      1     68     26      0.6355E-01       15.62    
   5067      1     68     27      0.6583E-01       15.62    
   5068      1     68     28      0.7308E-01       15.62    
   5069      1     68     29      0.8215E-01       15.62    
   5070      1     68     30      0.8946E-01       15.62    
   5071      1     68     31      0.9308E-01       15.62    
   5072      1     68     32      0.8786E-01       15.62    
   5073      1     68     59       0.000           15.62    
   5074      1     68     60       0.000           15.62    
   5075      1     68     61       0.000           15.62    
   5076      1     68     62       0.000           15.62    
   5077      1     68     63       0.000           15.62    
   5078      1     68     64       0.000           15.62    
   5079      1     68     65       0.000           15.62    
   5080      1     68     66       0.000           15.62    
   5081      1     68     67       0.000           15.62    
   5082      1     68     68       0.000           15.62    
   5083      1     68     69       0.000           15.62    
   5084      1     68     70       0.000           15.62    
   5085      1     68     71       0.000           15.62    
   5086      1     68     72      0.2050E-01       15.62    
   5087      1     68     73      0.5891E-01       15.62    
   5088      1     68     74      0.1021           15.62    
   5089      1     68     75      0.1364           15.62    
   5090      1     68     76      0.1685           15.62    
   5091      1     68     77      0.1877           15.62    
   5092      1     68     78      0.2019           15.62    
   5093      1     68     79      0.2123           15.62    
   5094      1     68     80      0.2198           15.62    
   5095      1     68     81      0.2275           15.62    
   5096      1     68     82      0.2350           15.62    
   5097      1     68     83      0.2402           15.62    
   5098      1     68     84      0.2459           15.62    
   5099      1     68     85      0.2531           15.62    
   5100      1     68     86      0.2623           15.62    
   5101      1     68     87      0.2701           15.62    
   5102      1     68     88      0.2754           15.62    
   5103      1     68     89      0.2797           15.62    
   5104      1     68     90      0.2836           15.62    
   5105      1     68     91      0.2869           15.62    
   5106      1     68     92      0.2909           15.62    
   5107      1     68     93      0.2948           15.62    
   5108      1     68     94      0.2997           15.62    
   5109      1     68     95      0.3052           15.62    
   5110      1     68     96      0.3103           15.62    
   5111      1     68     97      0.3156           15.62    
   5112      1     68     98      0.3190           15.62    
   5113      1     68     99      0.3204           15.62    
   5114      1     68    100      0.3206           15.62    
   5115      1     69      1       1.019           15.62    
   5116      1     69      2      0.9688           15.62    
   5117      1     69      3      0.9209           15.62    
   5118      1     69      4      0.8591           15.62    
   5119      1     69      5      0.7854           15.62    
   5120      1     69      6      0.7143           15.62    
   5121      1     69      7      0.6333           15.62    
   5122      1     69      8      0.5542           15.62    
   5123      1     69      9      0.4827           15.62    
   5124      1     69     10      0.3975           15.62    
   5125      1     69     11      0.3301           15.62    
   5126      1     69     12      0.2690           15.62    
   5127      1     69     13      0.2299           15.62    
   5128      1     69     14      0.2118           15.62    
   5129      1     69     15      0.1989           15.62    
   5130      1     69     16      0.1910           15.62    
   5131      1     69     17      0.1856           15.62    
   5132      1     69     18      0.1847           15.62    
   5133      1     69     19      0.1841           15.62    
   5134      1     69     20      0.1779           15.62    
   5135      1     69     21      0.1637           15.62    
   5136      1     69     22      0.1446           15.62    
   5137      1     69     23      0.1205           15.62    
   5138      1     69     24      0.1003           15.62    
   5139      1     69     25      0.8040E-01       15.62    
   5140      1     69     26      0.6800E-01       15.62    
   5141      1     69     27      0.6869E-01       15.62    
   5142      1     69     28      0.7510E-01       15.62    
   5143      1     69     29      0.8276E-01       15.62    
   5144      1     69     30      0.8854E-01       15.62    
   5145      1     69     31      0.9385E-01       15.62    
   5146      1     69     32      0.9092E-01       15.62    
   5147      1     69     59       0.000           15.62    
   5148      1     69     60       0.000           15.62    
   5149      1     69     61       0.000           15.62    
   5150      1     69     62       0.000           15.62    
   5151      1     69     63       0.000           15.62    
   5152      1     69     64       0.000           15.62    
   5153      1     69     65       0.000           15.62    
   5154      1     69     66       0.000           15.62    
   5155      1     69     67       0.000           15.62    
   5156      1     69     68       0.000           15.62    
   5157      1     69     69      0.8592E-02       15.62    
   5158      1     69     70      0.2206E-01       15.62    
   5159      1     69     71      0.4476E-01       15.62    
   5160      1     69     72      0.7024E-01       15.62    
   5161      1     69     73      0.1049           15.62    
   5162      1     69     74      0.1407           15.62    
   5163      1     69     75      0.1691           15.62    
   5164      1     69     76      0.1961           15.62    
   5165      1     69     77      0.2139           15.62    
   5166      1     69     78      0.2266           15.62    
   5167      1     69     79      0.2356           15.62    
   5168      1     69     80      0.2419           15.62    
   5169      1     69     81      0.2478           15.62    
   5170      1     69     82      0.2529           15.62    
   5171      1     69     83      0.2568           15.62    
   5172      1     69     84      0.2613           15.62    
   5173      1     69     85      0.2668           15.62    
   5174      1     69     86      0.2738           15.62    
   5175      1     69     87      0.2799           15.62    
   5176      1     69     88      0.2842           15.62    
   5177      1     69     89      0.2875           15.62    
   5178      1     69     90      0.2910           15.62    
   5179      1     69     91      0.2939           15.62    
   5180      1     69     92      0.2977           15.62    
   5181      1     69     93      0.3013           15.62    
   5182      1     69     94      0.3057           15.62    
   5183      1     69     95      0.3107           15.62    
   5184      1     69     96      0.3151           15.62    
   5185      1     69     97      0.3197           15.62    
   5186      1     69     98      0.3226           15.62    
   5187      1     69     99      0.3242           15.62    
   5188      1     69    100      0.3248           15.62    
   5189      1     70      1       1.039           15.62    
   5190      1     70      2      0.9961           15.62    
   5191      1     70      3      0.9560           15.62    
   5192      1     70      4      0.9038           15.62    
   5193      1     70      5      0.8388           15.62    
   5194      1     70      6      0.7754           15.62    
   5195      1     70      7      0.7007           15.62    
   5196      1     70      8      0.6222           15.62    
   5197      1     70      9      0.5448           15.62    
   5198      1     70     10      0.4475           15.62    
   5199      1     70     11      0.3687           15.62    
   5200      1     70     12      0.2960           15.62    
   5201      1     70     13      0.2494           15.62    
   5202      1     70     14      0.2283           15.62    
   5203      1     70     15      0.2144           15.62    
   5204      1     70     16      0.2064           15.62    
   5205      1     70     17      0.2007           15.62    
   5206      1     70     18      0.1982           15.62    
   5207      1     70     19      0.1961           15.62    
   5208      1     70     20      0.1884           15.62    
   5209      1     70     21      0.1725           15.62    
   5210      1     70     22      0.1517           15.62    
   5211      1     70     23      0.1269           15.62    
   5212      1     70     24      0.1067           15.62    
   5213      1     70     25      0.8626E-01       15.62    
   5214      1     70     26      0.7133E-01       15.62    
   5215      1     70     27      0.7160E-01       15.62    
   5216      1     70     28      0.7754E-01       15.62    
   5217      1     70     29      0.8380E-01       15.62    
   5218      1     70     30      0.8768E-01       15.62    
   5219      1     70     31      0.9252E-01       15.62    
   5220      1     70     32      0.9094E-01       15.62    
   5221      1     70     33      0.8143E-01       15.62    
   5222      1     70     60       0.000           15.62    
   5223      1     70     61       0.000           15.62    
   5224      1     70     62       0.000           15.62    
   5225      1     70     63       0.000           15.62    
   5226      1     70     64       0.000           15.62    
   5227      1     70     65      0.2439E-02       15.62    
   5228      1     70     66      0.1152E-01       15.62    
   5229      1     70     67      0.1853E-01       15.62    
   5230      1     70     68      0.2174E-01       15.62    
   5231      1     70     69      0.2918E-01       15.62    
   5232      1     70     70      0.5309E-01       15.62    
   5233      1     70     71      0.8078E-01       15.62    
   5234      1     70     72      0.1065           15.62    
   5235      1     70     73      0.1390           15.62    
   5236      1     70     74      0.1710           15.62    
   5237      1     70     75      0.1963           15.62    
   5238      1     70     76      0.2208           15.62    
   5239      1     70     77      0.2365           15.62    
   5240      1     70     78      0.2472           15.62    
   5241      1     70     79      0.2544           15.62    
   5242      1     70     80      0.2592           15.62    
   5243      1     70     81      0.2632           15.62    
   5244      1     70     82      0.2654           15.62    
   5245      1     70     83      0.2680           15.62    
   5246      1     70     84      0.2721           15.62    
   5247      1     70     85      0.2763           15.62    
   5248      1     70     86      0.2816           15.62    
   5249      1     70     87      0.2863           15.62    
   5250      1     70     88      0.2897           15.62    
   5251      1     70     89      0.2926           15.62    
   5252      1     70     90      0.2956           15.62    
   5253      1     70     91      0.2985           15.62    
   5254      1     70     92      0.3021           15.62    
   5255      1     70     93      0.3053           15.62    
   5256      1     70     94      0.3094           15.62    
   5257      1     70     95      0.3138           15.62    
   5258      1     70     96      0.3177           15.62    
   5259      1     70     97      0.3216           15.62    
   5260      1     70     98      0.3241           15.62    
   5261      1     70     99      0.3260           15.62    
   5262      1     70    100      0.3269           15.62    
   5263      1     71      1       1.044           15.62    
   5264      1     71      2       1.012           15.62    
   5265      1     71      3      0.9810           15.62    
   5266      1     71      4      0.9393           15.62    
   5267      1     71      5      0.8874           15.62    
   5268      1     71      6      0.8357           15.62    
   5269      1     71      7      0.7698           15.62    
   5270      1     71      8      0.6933           15.62    
   5271      1     71      9      0.6115           15.62    
   5272      1     71     10      0.5047           15.62    
   5273      1     71     11      0.4131           15.62    
   5274      1     71     12      0.3265           15.62    
   5275      1     71     13      0.2751           15.62    
   5276      1     71     14      0.2534           15.62    
   5277      1     71     15      0.2384           15.62    
   5278      1     71     16      0.2288           15.62    
   5279      1     71     17      0.2208           15.62    
   5280      1     71     18      0.2147           15.62    
   5281      1     71     19      0.2103           15.62    
   5282      1     71     20      0.2004           15.62    
   5283      1     71     21      0.1819           15.62    
   5284      1     71     22      0.1587           15.62    
   5285      1     71     23      0.1336           15.62    
   5286      1     71     24      0.1141           15.62    
   5287      1     71     25      0.9519E-01       15.62    
   5288      1     71     26      0.8224E-01       15.62    
   5289      1     71     27      0.7984E-01       15.62    
   5290      1     71     28      0.8187E-01       15.62    
   5291      1     71     29      0.8450E-01       15.62    
   5292      1     71     30      0.8545E-01       15.62    
   5293      1     71     31      0.8852E-01       15.62    
   5294      1     71     32      0.8780E-01       15.62    
   5295      1     71     33      0.8120E-01       15.62    
   5296      1     71     60       0.000           15.62    
   5297      1     71     61       0.000           15.62    
   5298      1     71     62       0.000           15.62    
   5299      1     71     63      0.1680E-02       15.62    
   5300      1     71     64      0.7384E-02       15.62    
   5301      1     71     65      0.1302E-01       15.62    
   5302      1     71     66      0.2004E-01       15.62    
   5303      1     71     67      0.2637E-01       15.62    
   5304      1     71     68      0.3708E-01       15.62    
   5305      1     71     69      0.5758E-01       15.62    
   5306      1     71     70      0.8524E-01       15.62    
   5307      1     71     71      0.1141           15.62    
   5308      1     71     72      0.1408           15.62    
   5309      1     71     73      0.1730           15.62    
   5310      1     71     74      0.2032           15.62    
   5311      1     71     75      0.2267           15.62    
   5312      1     71     76      0.2487           15.62    
   5313      1     71     77      0.2610           15.62    
   5314      1     71     78      0.2689           15.62    
   5315      1     71     79      0.2737           15.62    
   5316      1     71     80      0.2767           15.62    
   5317      1     71     81      0.2788           15.62    
   5318      1     71     82      0.2788           15.62    
   5319      1     71     83      0.2797           15.62    
   5320      1     71     84      0.2822           15.62    
   5321      1     71     85      0.2846           15.62    
   5322      1     71     86      0.2880           15.62    
   5323      1     71     87      0.2912           15.62    
   5324      1     71     88      0.2935           15.62    
   5325      1     71     89      0.2961           15.62    
   5326      1     71     90      0.2989           15.62    
   5327      1     71     91      0.3017           15.62    
   5328      1     71     92      0.3053           15.62    
   5329      1     71     93      0.3083           15.62    
   5330      1     71     94      0.3120           15.62    
   5331      1     71     95      0.3160           15.62    
   5332      1     71     96      0.3194           15.62    
   5333      1     71     97      0.3226           15.62    
   5334      1     71     98      0.3249           15.62    
   5335      1     71     99      0.3268           15.62    
   5336      1     71    100      0.3278           15.62    
   5337      1     72      1       1.041           15.62    
   5338      1     72      2       1.017           15.62    
   5339      1     72      3      0.9919           15.62    
   5340      1     72      4      0.9595           15.62    
   5341      1     72      5      0.9222           15.62    
   5342      1     72      6      0.8850           15.62    
   5343      1     72      7      0.8329           15.62    
   5344      1     72      8      0.7633           15.62    
   5345      1     72      9      0.6782           15.62    
   5346      1     72     10      0.5649           15.62    
   5347      1     72     11      0.4641           15.62    
   5348      1     72     12      0.3678           15.62    
   5349      1     72     13      0.3126           15.62    
   5350      1     72     14      0.2887           15.62    
   5351      1     72     15      0.2699           15.62    
   5352      1     72     16      0.2557           15.62    
   5353      1     72     17      0.2422           15.62    
   5354      1     72     18      0.2301           15.62    
   5355      1     72     19      0.2203           15.62    
   5356      1     72     20      0.2058           15.62    
   5357      1     72     21      0.1849           15.62    
   5358      1     72     22      0.1623           15.62    
   5359      1     72     23      0.1385           15.62    
   5360      1     72     24      0.1200           15.62    
   5361      1     72     25      0.1024           15.62    
   5362      1     72     26      0.9081E-01       15.62    
   5363      1     72     27      0.8636E-01       15.62    
   5364      1     72     28      0.8408E-01       15.62    
   5365      1     72     29      0.8199E-01       15.62    
   5366      1     72     30      0.7946E-01       15.62    
   5367      1     72     31      0.8053E-01       15.62    
   5368      1     72     32      0.8099E-01       15.62    
   5369      1     72     33      0.7824E-01       15.62    
   5370      1     72     34      0.6928E-01       15.62    
   5371      1     72     60       0.000           15.62    
   5372      1     72     61       0.000           15.62    
   5373      1     72     62      0.1519E-02       15.62    
   5374      1     72     63      0.1128E-01       15.62    
   5375      1     72     64      0.1521E-01       15.62    
   5376      1     72     65      0.2117E-01       15.62    
   5377      1     72     66      0.3015E-01       15.62    
   5378      1     72     67      0.4204E-01       15.62    
   5379      1     72     68      0.6265E-01       15.62    
   5380      1     72     69      0.8381E-01       15.62    
   5381      1     72     70      0.1118           15.62    
   5382      1     72     71      0.1422           15.62    
   5383      1     72     72      0.1699           15.62    
   5384      1     72     73      0.2027           15.62    
   5385      1     72     74      0.2333           15.62    
   5386      1     72     75      0.2565           15.62    
   5387      1     72     76      0.2759           15.62    
   5388      1     72     77      0.2839           15.62    
   5389      1     72     78      0.2884           15.62    
   5390      1     72     79      0.2909           15.62    
   5391      1     72     80      0.2920           15.62    
   5392      1     72     81      0.2922           15.62    
   5393      1     72     82      0.2904           15.62    
   5394      1     72     83      0.2896           15.62    
   5395      1     72     84      0.2901           15.62    
   5396      1     72     85      0.2908           15.62    
   5397      1     72     86      0.2924           15.62    
   5398      1     72     87      0.2942           15.62    
   5399      1     72     88      0.2959           15.62    
   5400      1     72     89      0.2982           15.62    
   5401      1     72     90      0.3009           15.62    
   5402      1     72     91      0.3037           15.62    
   5403      1     72     92      0.3072           15.62    
   5404      1     72     93      0.3101           15.62    
   5405      1     72     94      0.3135           15.62    
   5406      1     72     95      0.3171           15.62    
   5407      1     72     96      0.3201           15.62    
   5408      1     72     97      0.3230           15.62    
   5409      1     72     98      0.3250           15.62    
   5410      1     72     99      0.3267           15.62    
   5411      1     72    100      0.3278           15.62    
   5412      1     73      1       1.035           15.62    
   5413      1     73      2       1.015           15.62    
   5414      1     73      3      0.9945           15.62    
   5415      1     73      4      0.9694           15.62    
   5416      1     73      5      0.9434           15.62    
   5417      1     73      6      0.9195           15.62    
   5418      1     73      7      0.8851           15.62    
   5419      1     73      8      0.8276           15.62    
   5420      1     73      9      0.7387           15.62    
   5421      1     73     10      0.6230           15.62    
   5422      1     73     11      0.5239           15.62    
   5423      1     73     12      0.4279           15.62    
   5424      1     73     13      0.3649           15.62    
   5425      1     73     14      0.3318           15.62    
   5426      1     73     15      0.3039           15.62    
   5427      1     73     16      0.2827           15.62    
   5428      1     73     17      0.2617           15.62    
   5429      1     73     18      0.2429           15.62    
   5430      1     73     19      0.2268           15.62    
   5431      1     73     20      0.2069           15.62    
   5432      1     73     21      0.1843           15.62    
   5433      1     73     22      0.1636           15.62    
   5434      1     73     23      0.1416           15.62    
   5435      1     73     24      0.1243           15.62    
   5436      1     73     25      0.1073           15.62    
   5437      1     73     26      0.9514E-01       15.62    
   5438      1     73     27      0.8796E-01       15.62    
   5439      1     73     28      0.8118E-01       15.62    
   5440      1     73     29      0.7485E-01       15.62    
   5441      1     73     30      0.6983E-01       15.62    
   5442      1     73     31      0.6996E-01       15.62    
   5443      1     73     32      0.7190E-01       15.62    
   5444      1     73     33      0.7286E-01       15.62    
   5445      1     73     34      0.6888E-01       15.62    
   5446      1     73     35      0.5948E-01       15.62    
   5447      1     73     60       0.000           15.62    
   5448      1     73     61       0.000           15.62    
   5449      1     73     62      0.9295E-02       15.62    
   5450      1     73     63      0.1668E-01       15.62    
   5451      1     73     64      0.2020E-01       15.62    
   5452      1     73     65      0.3054E-01       15.62    
   5453      1     73     66      0.4480E-01       15.62    
   5454      1     73     67      0.6223E-01       15.62    
   5455      1     73     68      0.8480E-01       15.62    
   5456      1     73     69      0.1059           15.62    
   5457      1     73     70      0.1334           15.62    
   5458      1     73     71      0.1636           15.62    
   5459      1     73     72      0.1917           15.62    
   5460      1     73     73      0.2246           15.62    
   5461      1     73     74      0.2567           15.62    
   5462      1     73     75      0.2808           15.62    
   5463      1     73     76      0.2979           15.62    
   5464      1     73     77      0.3025           15.62    
   5465      1     73     78      0.3037           15.62    
   5466      1     73     79      0.3039           15.62    
   5467      1     73     80      0.3034           15.62    
   5468      1     73     81      0.3019           15.62    
   5469      1     73     82      0.2989           15.62    
   5470      1     73     83      0.2967           15.62    
   5471      1     73     84      0.2956           15.62    
   5472      1     73     85      0.2948           15.62    
   5473      1     73     86      0.2950           15.62    
   5474      1     73     87      0.2958           15.62    
   5475      1     73     88      0.2970           15.62    
   5476      1     73     89      0.2991           15.62    
   5477      1     73     90      0.3017           15.62    
   5478      1     73     91      0.3045           15.62    
   5479      1     73     92      0.3080           15.62    
   5480      1     73     93      0.3108           15.62    
   5481      1     73     94      0.3140           15.62    
   5482      1     73     95      0.3174           15.62    
   5483      1     73     96      0.3201           15.62    
   5484      1     73     97      0.3227           15.62    
   5485      1     73     98      0.3246           15.62    
   5486      1     73     99      0.3262           15.62    
   5487      1     73    100      0.3273           15.62    
   5488      1     74      1       1.026           15.62    
   5489      1     74      2       1.008           15.62    
   5490      1     74      3      0.9908           15.62    
   5491      1     74      4      0.9715           15.62    
   5492      1     74      5      0.9550           15.62    
   5493      1     74      6      0.9410           15.62    
   5494      1     74      7      0.9176           15.62    
   5495      1     74      8      0.8699           15.62    
   5496      1     74      9      0.7894           15.62    
   5497      1     74     10      0.6835           15.62    
   5498      1     74     11      0.5932           15.62    
   5499      1     74     12      0.5029           15.62    
   5500      1     74     13      0.4336           15.62    
   5501      1     74     14      0.3892           15.62    
   5502      1     74     15      0.3487           15.62    
   5503      1     74     16      0.3174           15.62    
   5504      1     74     17      0.2861           15.62    
   5505      1     74     18      0.2591           15.62    
   5506      1     74     19      0.2364           15.62    
   5507      1     74     20      0.2106           15.62    
   5508      1     74     21      0.1852           15.62    
   5509      1     74     22      0.1656           15.62    
   5510      1     74     23      0.1452           15.62    
   5511      1     74     24      0.1289           15.62    
   5512      1     74     25      0.1121           15.62    
   5513      1     74     26      0.9792E-01       15.62    
   5514      1     74     27      0.8700E-01       15.62    
   5515      1     74     28      0.7528E-01       15.62    
   5516      1     74     29      0.6438E-01       15.62    
   5517      1     74     30      0.5653E-01       15.62    
   5518      1     74     31      0.5697E-01       15.62    
   5519      1     74     32      0.6116E-01       15.62    
   5520      1     74     33      0.6568E-01       15.62    
   5521      1     74     34      0.6571E-01       15.62    
   5522      1     74     35      0.6079E-01       15.62    
   5523      1     74     60       0.000           15.62    
   5524      1     74     61      0.1295E-01       15.62    
   5525      1     74     62      0.2001E-01       15.62    
   5526      1     74     63      0.2699E-01       15.62    
   5527      1     74     64      0.3457E-01       15.62    
   5528      1     74     65      0.4388E-01       15.62    
   5529      1     74     66      0.6191E-01       15.62    
   5530      1     74     67      0.8570E-01       15.62    
   5531      1     74     68      0.1085           15.62    
   5532      1     74     69      0.1298           15.62    
   5533      1     74     70      0.1567           15.62    
   5534      1     74     71      0.1852           15.62    
   5535      1     74     72      0.2116           15.62    
   5536      1     74     73      0.2436           15.62    
   5537      1     74     74      0.2753           15.62    
   5538      1     74     75      0.2988           15.62    
   5539      1     74     76      0.3139           15.62    
   5540      1     74     77      0.3170           15.62    
   5541      1     74     78      0.3165           15.62    
   5542      1     74     79      0.3150           15.62    
   5543      1     74     80      0.3134           15.62    
   5544      1     74     81      0.3107           15.62    
   5545      1     74     82      0.3066           15.62    
   5546      1     74     83      0.3032           15.62    
   5547      1     74     84      0.3003           15.62    
   5548      1     74     85      0.2981           15.62    
   5549      1     74     86      0.2966           15.62    
   5550      1     74     87      0.2962           15.62    
   5551      1     74     88      0.2971           15.62    
   5552      1     74     89      0.2991           15.62    
   5553      1     74     90      0.3018           15.62    
   5554      1     74     91      0.3047           15.62    
   5555      1     74     92      0.3082           15.62    
   5556      1     74     93      0.3111           15.62    
   5557      1     74     94      0.3142           15.62    
   5558      1     74     95      0.3172           15.62    
   5559      1     74     96      0.3197           15.62    
   5560      1     74     97      0.3220           15.62    
   5561      1     74     98      0.3237           15.62    
   5562      1     74     99      0.3252           15.62    
   5563      1     74    100      0.3263           15.62    
   5564      1     75      1       1.016           15.62    
   5565      1     75      2      0.9983           15.62    
   5566      1     75      3      0.9817           15.62    
   5567      1     75      4      0.9645           15.62    
   5568      1     75      5      0.9552           15.62    
   5569      1     75      6      0.9469           15.62    
   5570      1     75      7      0.9281           15.62    
   5571      1     75      8      0.8868           15.62    
   5572      1     75      9      0.8213           15.62    
   5573      1     75     10      0.7319           15.62    
   5574      1     75     11      0.6532           15.62    
   5575      1     75     12      0.5702           15.62    
   5576      1     75     13      0.4986           15.62    
   5577      1     75     14      0.4465           15.62    
   5578      1     75     15      0.3956           15.62    
   5579      1     75     16      0.3550           15.62    
   5580      1     75     17      0.3131           15.62    
   5581      1     75     18      0.2790           15.62    
   5582      1     75     19      0.2512           15.62    
   5583      1     75     20      0.2205           15.62    
   5584      1     75     21      0.1922           15.62    
   5585      1     75     22      0.1718           15.62    
   5586      1     75     23      0.1510           15.62    
   5587      1     75     24      0.1344           15.62    
   5588      1     75     25      0.1171           15.62    
   5589      1     75     26      0.1013           15.62    
   5590      1     75     27      0.8772E-01       15.62    
   5591      1     75     28      0.7226E-01       15.62    
   5592      1     75     29      0.5739E-01       15.62    
   5593      1     75     30      0.4658E-01       15.62    
   5594      1     75     31      0.4732E-01       15.62    
   5595      1     75     32      0.5269E-01       15.62    
   5596      1     75     33      0.5864E-01       15.62    
   5597      1     75     34      0.6090E-01       15.62    
   5598      1     75     35      0.5981E-01       15.62    
   5599      1     75     36      0.5356E-01       15.62    
   5600      1     75     60      0.1440E-01       15.62    
   5601      1     75     61      0.2282E-01       15.62    
   5602      1     75     62      0.3223E-01       15.62    
   5603      1     75     63      0.4109E-01       15.62    
   5604      1     75     64      0.4898E-01       15.62    
   5605      1     75     65      0.6104E-01       15.62    
   5606      1     75     66      0.8232E-01       15.62    
   5607      1     75     67      0.1076           15.62    
   5608      1     75     68      0.1302           15.62    
   5609      1     75     69      0.1514           15.62    
   5610      1     75     70      0.1772           15.62    
   5611      1     75     71      0.2035           15.62    
   5612      1     75     72      0.2279           15.62    
   5613      1     75     73      0.2573           15.62    
   5614      1     75     74      0.2855           15.62    
   5615      1     75     75      0.3061           15.62    
   5616      1     75     76      0.3199           15.62    
   5617      1     75     77      0.3238           15.62    
   5618      1     75     78      0.3242           15.62    
   5619      1     75     79      0.3226           15.62    
   5620      1     75     80      0.3205           15.62    
   5621      1     75     81      0.3168           15.62    
   5622      1     75     82      0.3118           15.62    
   5623      1     75     83      0.3075           15.62    
   5624      1     75     84      0.3034           15.62    
   5625      1     75     85      0.3000           15.62    
   5626      1     75     86      0.2970           15.62    
   5627      1     75     87      0.2954           15.62    
   5628      1     75     88      0.2959           15.62    
   5629      1     75     89      0.2979           15.62    
   5630      1     75     90      0.3010           15.62    
   5631      1     75     91      0.3042           15.62    
   5632      1     75     92      0.3080           15.62    
   5633      1     75     93      0.3110           15.62    
   5634      1     75     94      0.3141           15.62    
   5635      1     75     95      0.3169           15.62    
   5636      1     75     96      0.3190           15.62    
   5637      1     75     97      0.3210           15.62    
   5638      1     75     98      0.3225           15.62    
   5639      1     75     99      0.3240           15.62    
   5640      1     75    100      0.3251           15.62    
   5641      1     76      1       1.008           15.62    
   5642      1     76      2      0.9897           15.62    
   5643      1     76      3      0.9721           15.62    
   5644      1     76      4      0.9540           15.62    
   5645      1     76      5      0.9498           15.62    
   5646      1     76      6      0.9446           15.62    
   5647      1     76      7      0.9283           15.62    
   5648      1     76      8      0.8926           15.62    
   5649      1     76      9      0.8398           15.62    
   5650      1     76     10      0.7654           15.62    
   5651      1     76     11      0.6969           15.62    
   5652      1     76     12      0.6210           15.62    
   5653      1     76     13      0.5498           15.62    
   5654      1     76     14      0.4940           15.62    
   5655      1     76     15      0.4369           15.62    
   5656      1     76     16      0.3905           15.62    
   5657      1     76     17      0.3418           15.62    
   5658      1     76     18      0.3015           15.62    
   5659      1     76     19      0.2689           15.62    
   5660      1     76     20      0.2341           15.62    
   5661      1     76     21      0.2034           15.62    
   5662      1     76     22      0.1810           15.62    
   5663      1     76     23      0.1586           15.62    
   5664      1     76     24      0.1410           15.62    
   5665      1     76     25      0.1227           15.62    
   5666      1     76     26      0.1048           15.62    
   5667      1     76     27      0.9022E-01       15.62    
   5668      1     76     28      0.7400E-01       15.62    
   5669      1     76     29      0.5855E-01       15.62    
   5670      1     76     30      0.4888E-01       15.62    
   5671      1     76     31      0.4634E-01       15.62    
   5672      1     76     32      0.4826E-01       15.62    
   5673      1     76     33      0.5256E-01       15.62    
   5674      1     76     34      0.5650E-01       15.62    
   5675      1     76     35      0.5869E-01       15.62    
   5676      1     76     36      0.5778E-01       15.62    
   5677      1     76     60      0.2723E-01       15.62    
   5678      1     76     61      0.3781E-01       15.62    
   5679      1     76     62      0.4576E-01       15.62    
   5680      1     76     63      0.5412E-01       15.62    
   5681      1     76     64      0.6209E-01       15.62    
   5682      1     76     65      0.8141E-01       15.62    
   5683      1     76     66      0.1067           15.62    
   5684      1     76     67      0.1269           15.62    
   5685      1     76     68      0.1479           15.62    
   5686      1     76     69      0.1681           15.62    
   5687      1     76     70      0.1925           15.62    
   5688      1     76     71      0.2169           15.62    
   5689      1     76     72      0.2400           15.62    
   5690      1     76     73      0.2664           15.62    
   5691      1     76     74      0.2902           15.62    
   5692      1     76     75      0.3074           15.62    
   5693      1     76     76      0.3206           15.62    
   5694      1     76     77      0.3259           15.62    
   5695      1     76     78      0.3279           15.62    
   5696      1     76     79      0.3271           15.62    
   5697      1     76     80      0.3247           15.62    
   5698      1     76     81      0.3205           15.62    
   5699      1     76     82      0.3153           15.62    
   5700      1     76     83      0.3105           15.62    
   5701      1     76     84      0.3053           15.62    
   5702      1     76     85      0.3009           15.62    
   5703      1     76     86      0.2964           15.62    
   5704      1     76     87      0.2937           15.62    
   5705      1     76     88      0.2939           15.62    
   5706      1     76     89      0.2966           15.62    
   5707      1     76     90      0.3003           15.62    
   5708      1     76     91      0.3038           15.62    
   5709      1     76     92      0.3079           15.62    
   5710      1     76     93      0.3109           15.62    
   5711      1     76     94      0.3140           15.62    
   5712      1     76     95      0.3165           15.62    
   5713      1     76     96      0.3184           15.62    
   5714      1     76     97      0.3200           15.62    
   5715      1     76     98      0.3214           15.62    
   5716      1     76     99      0.3228           15.62    
   5717      1     76    100      0.3241           15.62    
   5718      1     77      1       1.001           15.62    
   5719      1     77      2      0.9839           15.62    
   5720      1     77      3      0.9683           15.62    
   5721      1     77      4      0.9532           15.62    
   5722      1     77      5      0.9484           15.62    
   5723      1     77      6      0.9436           15.62    
   5724      1     77      7      0.9310           15.62    
   5725      1     77      8      0.9031           15.62    
   5726      1     77      9      0.8591           15.62    
   5727      1     77     10      0.7963           15.62    
   5728      1     77     11      0.7374           15.62    
   5729      1     77     12      0.6697           15.62    
   5730      1     77     13      0.6008           15.62    
   5731      1     77     14      0.5437           15.62    
   5732      1     77     15      0.4831           15.62    
   5733      1     77     16      0.4330           15.62    
   5734      1     77     17      0.3796           15.62    
   5735      1     77     18      0.3320           15.62    
   5736      1     77     19      0.2933           15.62    
   5737      1     77     20      0.2531           15.62    
   5738      1     77     21      0.2191           15.62    
   5739      1     77     22      0.1943           15.62    
   5740      1     77     23      0.1700           15.62    
   5741      1     77     24      0.1513           15.62    
   5742      1     77     25      0.1318           15.62    
   5743      1     77     26      0.1117           15.62    
   5744      1     77     27      0.9592E-01       15.62    
   5745      1     77     28      0.7905E-01       15.62    
   5746      1     77     29      0.6318E-01       15.62    
   5747      1     77     30      0.5343E-01       15.62    
   5748      1     77     31      0.4698E-01       15.62    
   5749      1     77     32      0.4501E-01       15.62    
   5750      1     77     33      0.4714E-01       15.62    
   5751      1     77     34      0.5264E-01       15.62    
   5752      1     77     35      0.5666E-01       15.62    
   5753      1     77     36      0.5944E-01       15.62    
   5754      1     77     37      0.5884E-01       15.62    
   5755      1     77     59      0.2871E-01       15.62    
   5756      1     77     60      0.4551E-01       15.62    
   5757      1     77     61      0.5443E-01       15.62    
   5758      1     77     62      0.6121E-01       15.62    
   5759      1     77     63      0.6980E-01       15.62    
   5760      1     77     64      0.7914E-01       15.62    
   5761      1     77     65      0.1010           15.62    
   5762      1     77     66      0.1283           15.62    
   5763      1     77     67      0.1481           15.62    
   5764      1     77     68      0.1683           15.62    
   5765      1     77     69      0.1872           15.62    
   5766      1     77     70      0.2096           15.62    
   5767      1     77     71      0.2313           15.62    
   5768      1     77     72      0.2512           15.62    
   5769      1     77     73      0.2744           15.62    
   5770      1     77     74      0.2948           15.62    
   5771      1     77     75      0.3091           15.62    
   5772      1     77     76      0.3207           15.62    
   5773      1     77     77      0.3265           15.62    
   5774      1     77     78      0.3298           15.62    
   5775      1     77     79      0.3300           15.62    
   5776      1     77     80      0.3277           15.62    
   5777      1     77     81      0.3237           15.62    
   5778      1     77     82      0.3186           15.62    
   5779      1     77     83      0.3134           15.62    
   5780      1     77     84      0.3073           15.62    
   5781      1     77     85      0.3018           15.62    
   5782      1     77     86      0.2957           15.62    
   5783      1     77     87      0.2917           15.62    
   5784      1     77     88      0.2919           15.62    
   5785      1     77     89      0.2956           15.62    
   5786      1     77     90      0.3000           15.62    
   5787      1     77     91      0.3039           15.62    
   5788      1     77     92      0.3081           15.62    
   5789      1     77     93      0.3112           15.62    
   5790      1     77     94      0.3141           15.62    
   5791      1     77     95      0.3165           15.62    
   5792      1     77     96      0.3179           15.62    
   5793      1     77     97      0.3191           15.62    
   5794      1     77     98      0.3202           15.62    
   5795      1     77     99      0.3217           15.62    
   5796      1     77    100      0.3232           15.62    
   5797      1     78      1      0.9966           15.62    
   5798      1     78      2      0.9815           15.62    
   5799      1     78      3      0.9683           15.62    
   5800      1     78      4      0.9558           15.62    
   5801      1     78      5      0.9494           15.62    
   5802      1     78      6      0.9436           15.62    
   5803      1     78      7      0.9321           15.62    
   5804      1     78      8      0.9085           15.62    
   5805      1     78      9      0.8707           15.62    
   5806      1     78     10      0.8162           15.62    
   5807      1     78     11      0.7641           15.62    
   5808      1     78     12      0.7026           15.62    
   5809      1     78     13      0.6378           15.62    
   5810      1     78     14      0.5822           15.62    
   5811      1     78     15      0.5215           15.62    
   5812      1     78     16      0.4701           15.62    
   5813      1     78     17      0.4138           15.62    
   5814      1     78     18      0.3609           15.62    
   5815      1     78     19      0.3169           15.62    
   5816      1     78     20      0.2711           15.62    
   5817      1     78     21      0.2337           15.62    
   5818      1     78     22      0.2077           15.62    
   5819      1     78     23      0.1826           15.62    
   5820      1     78     24      0.1633           15.62    
   5821      1     78     25      0.1426           15.62    
   5822      1     78     26      0.1209           15.62    
   5823      1     78     27      0.1036           15.62    
   5824      1     78     28      0.8531E-01       15.62    
   5825      1     78     29      0.6839E-01       15.62    
   5826      1     78     30      0.5733E-01       15.62    
   5827      1     78     31      0.4869E-01       15.62    
   5828      1     78     32      0.4477E-01       15.62    
   5829      1     78     33      0.4533E-01       15.62    
   5830      1     78     34      0.5114E-01       15.62    
   5831      1     78     35      0.5588E-01       15.62    
   5832      1     78     36      0.5993E-01       15.62    
   5833      1     78     37      0.6158E-01       15.62    
   5834      1     78     38      0.5956E-01       15.62    
   5835      1     78     59      0.4653E-01       15.62    
   5836      1     78     60      0.6140E-01       15.62    
   5837      1     78     61      0.6920E-01       15.62    
   5838      1     78     62      0.7526E-01       15.62    
   5839      1     78     63      0.8481E-01       15.62    
   5840      1     78     64      0.9788E-01       15.62    
   5841      1     78     65      0.1202           15.62    
   5842      1     78     66      0.1457           15.62    
   5843      1     78     67      0.1649           15.62    
   5844      1     78     68      0.1848           15.62    
   5845      1     78     69      0.2028           15.62    
   5846      1     78     70      0.2238           15.62    
   5847      1     78     71      0.2442           15.62    
   5848      1     78     72      0.2614           15.62    
   5849      1     78     73      0.2812           15.62    
   5850      1     78     74      0.2988           15.62    
   5851      1     78     75      0.3108           15.62    
   5852      1     78     76      0.3212           15.62    
   5853      1     78     77      0.3272           15.62    
   5854      1     78     78      0.3309           15.62    
   5855      1     78     79      0.3313           15.62    
   5856      1     78     80      0.3293           15.62    
   5857      1     78     81      0.3261           15.62    
   5858      1     78     82      0.3210           15.62    
   5859      1     78     83      0.3154           15.62    
   5860      1     78     84      0.3091           15.62    
   5861      1     78     85      0.3031           15.62    
   5862      1     78     86      0.2962           15.62    
   5863      1     78     87      0.2915           15.62    
   5864      1     78     88      0.2918           15.62    
   5865      1     78     89      0.2960           15.62    
   5866      1     78     90      0.3008           15.62    
   5867      1     78     91      0.3047           15.62    
   5868      1     78     92      0.3089           15.62    
   5869      1     78     93      0.3119           15.62    
   5870      1     78     94      0.3148           15.62    
   5871      1     78     95      0.3169           15.62    
   5872      1     78     96      0.3182           15.62    
   5873      1     78     97      0.3189           15.62    
   5874      1     78     98      0.3198           15.62    
   5875      1     78     99      0.3214           15.62    
   5876      1     78    100      0.3231           15.62    
   5877      1     79      1      0.9930           15.62    
   5878      1     79      2      0.9799           15.62    
   5879      1     79      3      0.9688           15.62    
   5880      1     79      4      0.9581           15.62    
   5881      1     79      5      0.9501           15.62    
   5882      1     79      6      0.9428           15.62    
   5883      1     79      7      0.9308           15.62    
   5884      1     79      8      0.9096           15.62    
   5885      1     79      9      0.8781           15.62    
   5886      1     79     10      0.8324           15.62    
   5887      1     79     11      0.7875           15.62    
   5888      1     79     12      0.7324           15.62    
   5889      1     79     13      0.6734           15.62    
   5890      1     79     14      0.6212           15.62    
   5891      1     79     15      0.5627           15.62    
   5892      1     79     16      0.5119           15.62    
   5893      1     79     17      0.4540           15.62    
   5894      1     79     18      0.3961           15.62    
   5895      1     79     19      0.3456           15.62    
   5896      1     79     20      0.2921           15.62    
   5897      1     79     21      0.2510           15.62    
   5898      1     79     22      0.2254           15.62    
   5899      1     79     23      0.2012           15.62    
   5900      1     79     24      0.1819           15.62    
   5901      1     79     25      0.1598           15.62    
   5902      1     79     26      0.1358           15.62    
   5903      1     79     27      0.1158           15.62    
   5904      1     79     28      0.9451E-01       15.62    
   5905      1     79     29      0.7495E-01       15.62    
   5906      1     79     30      0.6192E-01       15.62    
   5907      1     79     31      0.5244E-01       15.62    
   5908      1     79     32      0.4801E-01       15.62    
   5909      1     79     33      0.4721E-01       15.62    
   5910      1     79     34      0.5186E-01       15.62    
   5911      1     79     35      0.5652E-01       15.62    
   5912      1     79     36      0.6092E-01       15.62    
   5913      1     79     37      0.6354E-01       15.62    
   5914      1     79     38      0.6399E-01       15.62    
   5915      1     79     39      0.5964E-01       15.62    
   5916      1     79     40      0.5134E-01       15.62    
   5917      1     79     58      0.5396E-01       15.62    
   5918      1     79     59      0.6928E-01       15.62    
   5919      1     79     60      0.8204E-01       15.62    
   5920      1     79     61      0.8909E-01       15.62    
   5921      1     79     62      0.9480E-01       15.62    
   5922      1     79     63      0.1052           15.62    
   5923      1     79     64      0.1229           15.62    
   5924      1     79     65      0.1452           15.62    
   5925      1     79     66      0.1663           15.62    
   5926      1     79     67      0.1837           15.62    
   5927      1     79     68      0.2034           15.62    
   5928      1     79     69      0.2201           15.62    
   5929      1     79     70      0.2391           15.62    
   5930      1     79     71      0.2579           15.62    
   5931      1     79     72      0.2728           15.62    
   5932      1     79     73      0.2892           15.62    
   5933      1     79     74      0.3036           15.62    
   5934      1     79     75      0.3136           15.62    
   5935      1     79     76      0.3227           15.62    
   5936      1     79     77      0.3282           15.62    
   5937      1     79     78      0.3318           15.62    
   5938      1     79     79      0.3321           15.62    
   5939      1     79     80      0.3301           15.62    
   5940      1     79     81      0.3273           15.62    
   5941      1     79     82      0.3229           15.62    
   5942      1     79     83      0.3178           15.62    
   5943      1     79     84      0.3119           15.62    
   5944      1     79     85      0.3065           15.62    
   5945      1     79     86      0.3006           15.62    
   5946      1     79     87      0.2967           15.62    
   5947      1     79     88      0.2965           15.62    
   5948      1     79     89      0.2994           15.62    
   5949      1     79     90      0.3033           15.62    
   5950      1     79     91      0.3068           15.62    
   5951      1     79     92      0.3107           15.62    
   5952      1     79     93      0.3136           15.62    
   5953      1     79     94      0.3163           15.62    
   5954      1     79     95      0.3184           15.62    
   5955      1     79     96      0.3195           15.62    
   5956      1     79     97      0.3201           15.62    
   5957      1     79     98      0.3208           15.62    
   5958      1     79     99      0.3223           15.62    
   5959      1     79    100      0.3238           15.62    
   5960      1     80      1      0.9899           15.62    
   5961      1     80      2      0.9776           15.62    
   5962      1     80      3      0.9673           15.62    
   5963      1     80      4      0.9571           15.62    
   5964      1     80      5      0.9485           15.62    
   5965      1     80      6      0.9403           15.62    
   5966      1     80      7      0.9277           15.62    
   5967      1     80      8      0.9079           15.62    
   5968      1     80      9      0.8820           15.62    
   5969      1     80     10      0.8444           15.62    
   5970      1     80     11      0.8063           15.62    
   5971      1     80     12      0.7577           15.62    
   5972      1     80     13      0.7044           15.62    
   5973      1     80     14      0.6562           15.62    
   5974      1     80     15      0.6013           15.62    
   5975      1     80     16      0.5529           15.62    
   5976      1     80     17      0.4964           15.62    
   5977      1     80     18      0.4353           15.62    
   5978      1     80     19      0.3786           15.62    
   5979      1     80     20      0.3165           15.62    
   5980      1     80     21      0.2724           15.62    
   5981      1     80     22      0.2494           15.62    
   5982      1     80     23      0.2278           15.62    
   5983      1     80     24      0.2080           15.62    
   5984      1     80     25      0.1835           15.62    
   5985      1     80     26      0.1560           15.62    
   5986      1     80     27      0.1323           15.62    
   5987      1     80     28      0.1066           15.62    
   5988      1     80     29      0.8268E-01       15.62    
   5989      1     80     30      0.6861E-01       15.62    
   5990      1     80     31      0.5917E-01       15.62    
   5991      1     80     32      0.5480E-01       15.62    
   5992      1     80     33      0.5309E-01       15.62    
   5993      1     80     34      0.5534E-01       15.62    
   5994      1     80     35      0.5882E-01       15.62    
   5995      1     80     36      0.6308E-01       15.62    
   5996      1     80     37      0.6638E-01       15.62    
   5997      1     80     38      0.6723E-01       15.62    
   5998      1     80     39      0.6600E-01       15.62    
   5999      1     80     40      0.6264E-01       15.62    
   6000      1     80     41      0.5548E-01       15.62    
   6001      1     80     56      0.4648E-01       15.62    
   6002      1     80     57      0.6447E-01       15.62    
   6003      1     80     58      0.8213E-01       15.62    
   6004      1     80     59      0.9504E-01       15.62    
   6005      1     80     60      0.1072           15.62    
   6006      1     80     61      0.1153           15.62    
   6007      1     80     62      0.1229           15.62    
   6008      1     80     63      0.1327           15.62    
   6009      1     80     64      0.1487           15.62    
   6010      1     80     65      0.1686           15.62    
   6011      1     80     66      0.1877           15.62    
   6012      1     80     67      0.2039           15.62    
   6013      1     80     68      0.2225           15.62    
   6014      1     80     69      0.2374           15.62    
   6015      1     80     70      0.2532           15.62    
   6016      1     80     71      0.2698           15.62    
   6017      1     80     72      0.2833           15.62    
   6018      1     80     73      0.2972           15.62    
   6019      1     80     74      0.3089           15.62    
   6020      1     80     75      0.3175           15.62    
   6021      1     80     76      0.3253           15.62    
   6022      1     80     77      0.3301           15.62    
   6023      1     80     78      0.3329           15.62    
   6024      1     80     79      0.3329           15.62    
   6025      1     80     80      0.3310           15.62    
   6026      1     80     81      0.3282           15.62    
   6027      1     80     82      0.3243           15.62    
   6028      1     80     83      0.3199           15.62    
   6029      1     80     84      0.3151           15.62    
   6030      1     80     85      0.3105           15.62    
   6031      1     80     86      0.3059           15.62    
   6032      1     80     87      0.3029           15.62    
   6033      1     80     88      0.3024           15.62    
   6034      1     80     89      0.3041           15.62    
   6035      1     80     90      0.3070           15.62    
   6036      1     80     91      0.3099           15.62    
   6037      1     80     92      0.3132           15.62    
   6038      1     80     93      0.3160           15.62    
   6039      1     80     94      0.3187           15.62    
   6040      1     80     95      0.3209           15.62    
   6041      1     80     96      0.3222           15.62    
   6042      1     80     97      0.3232           15.62    
   6043      1     80     98      0.3240           15.62    
   6044      1     80     99      0.3250           15.62    
   6045      1     80    100      0.3257           15.62    
   6046      1     81      1      0.9873           15.62    
   6047      1     81      2      0.9748           15.62    
   6048      1     81      3      0.9642           15.62    
   6049      1     81      4      0.9540           15.62    
   6050      1     81      5      0.9456           15.62    
   6051      1     81      6      0.9378           15.62    
   6052      1     81      7      0.9260           15.62    
   6053      1     81      8      0.9082           15.62    
   6054      1     81      9      0.8861           15.62    
   6055      1     81     10      0.8542           15.62    
   6056      1     81     11      0.8212           15.62    
   6057      1     81     12      0.7781           15.62    
   6058      1     81     13      0.7292           15.62    
   6059      1     81     14      0.6841           15.62    
   6060      1     81     15      0.6324           15.62    
   6061      1     81     16      0.5867           15.62    
   6062      1     81     17      0.5332           15.62    
   6063      1     81     18      0.4722           15.62    
   6064      1     81     19      0.4140           15.62    
   6065      1     81     20      0.3499           15.62    
   6066      1     81     21      0.3059           15.62    
   6067      1     81     22      0.2829           15.62    
   6068      1     81     23      0.2601           15.62    
   6069      1     81     24      0.2379           15.62    
   6070      1     81     25      0.2098           15.62    
   6071      1     81     26      0.1785           15.62    
   6072      1     81     27      0.1509           15.62    
   6073      1     81     28      0.1198           15.62    
   6074      1     81     29      0.9064E-01       15.62    
   6075      1     81     30      0.7631E-01       15.62    
   6076      1     81     31      0.6747E-01       15.62    
   6077      1     81     32      0.6310E-01       15.62    
   6078      1     81     33      0.6036E-01       15.62    
   6079      1     81     34      0.6055E-01       15.62    
   6080      1     81     35      0.6221E-01       15.62    
   6081      1     81     36      0.6534E-01       15.62    
   6082      1     81     37      0.6907E-01       15.62    
   6083      1     81     38      0.7030E-01       15.62    
   6084      1     81     39      0.6990E-01       15.62    
   6085      1     81     40      0.6899E-01       15.62    
   6086      1     81     41      0.6721E-01       15.62    
   6087      1     81     42      0.6061E-01       15.62    
   6088      1     81     43      0.5408E-01       15.62    
   6089      1     81     44      0.5025E-01       15.62    
   6090      1     81     45      0.5074E-01       15.62    
   6091      1     81     46      0.5356E-01       15.62    
   6092      1     81     47      0.5413E-01       15.62    
   6093      1     81     51      0.5167E-01       15.62    
   6094      1     81     52      0.5304E-01       15.62    
   6095      1     81     53      0.5547E-01       15.62    
   6096      1     81     54      0.6126E-01       15.62    
   6097      1     81     55      0.6774E-01       15.62    
   6098      1     81     56      0.7753E-01       15.62    
   6099      1     81     57      0.9229E-01       15.62    
   6100      1     81     58      0.1069           15.62    
   6101      1     81     59      0.1191           15.62    
   6102      1     81     60      0.1316           15.62    
   6103      1     81     61      0.1408           15.62    
   6104      1     81     62      0.1502           15.62    
   6105      1     81     63      0.1612           15.62    
   6106      1     81     64      0.1742           15.62    
   6107      1     81     65      0.1903           15.62    
   6108      1     81     66      0.2068           15.62    
   6109      1     81     67      0.2209           15.62    
   6110      1     81     68      0.2372           15.62    
   6111      1     81     69      0.2505           15.62    
   6112      1     81     70      0.2648           15.62    
   6113      1     81     71      0.2791           15.62    
   6114      1     81     72      0.2915           15.62    
   6115      1     81     73      0.3039           15.62    
   6116      1     81     74      0.3140           15.62    
   6117      1     81     75      0.3215           15.62    
   6118      1     81     76      0.3284           15.62    
   6119      1     81     77      0.3325           15.62    
   6120      1     81     78      0.3345           15.62    
   6121      1     81     79      0.3338           15.62    
   6122      1     81     80      0.3322           15.62    
   6123      1     81     81      0.3293           15.62    
   6124      1     81     82      0.3255           15.62    
   6125      1     81     83      0.3216           15.62    
   6126      1     81     84      0.3176           15.62    
   6127      1     81     85      0.3139           15.62    
   6128      1     81     86      0.3103           15.62    
   6129      1     81     87      0.3080           15.62    
   6130      1     81     88      0.3074           15.62    
   6131      1     81     89      0.3084           15.62    
   6132      1     81     90      0.3106           15.62    
   6133      1     81     91      0.3130           15.62    
   6134      1     81     92      0.3159           15.62    
   6135      1     81     93      0.3186           15.62    
   6136      1     81     94      0.3213           15.62    
   6137      1     81     95      0.3236           15.62    
   6138      1     81     96      0.3252           15.62    
   6139      1     81     97      0.3265           15.62    
   6140      1     81     98      0.3273           15.62    
   6141      1     81     99      0.3279           15.62    
   6142      1     81    100      0.3280           15.62    
   6143      1     82      1      0.9850           15.62    
   6144      1     82      2      0.9718           15.62    
   6145      1     82      3      0.9600           15.62    
   6146      1     82      4      0.9491           15.62    
   6147      1     82      5      0.9421           15.62    
   6148      1     82      6      0.9359           15.62    
   6149      1     82      7      0.9258           15.62    
   6150      1     82      8      0.9106           15.62    
   6151      1     82      9      0.8921           15.62    
   6152      1     82     10      0.8655           15.62    
   6153      1     82     11      0.8377           15.62    
   6154      1     82     12      0.8005           15.62    
   6155      1     82     13      0.7551           15.62    
   6156      1     82     14      0.7127           15.62    
   6157      1     82     15      0.6637           15.62    
   6158      1     82     16      0.6205           15.62    
   6159      1     82     17      0.5704           15.62    
   6160      1     82     18      0.5144           15.62    
   6161      1     82     19      0.4626           15.62    
   6162      1     82     20      0.4066           15.62    
   6163      1     82     21      0.3648           15.62    
   6164      1     82     22      0.3372           15.62    
   6165      1     82     23      0.3074           15.62    
   6166      1     82     24      0.2799           15.62    
   6167      1     82     25      0.2462           15.62    
   6168      1     82     26      0.2099           15.62    
   6169      1     82     27      0.1777           15.62    
   6170      1     82     28      0.1418           15.62    
   6171      1     82     29      0.1090           15.62    
   6172      1     82     30      0.9295E-01       15.62    
   6173      1     82     31      0.8270E-01       15.62    
   6174      1     82     32      0.7687E-01       15.62    
   6175      1     82     33      0.7207E-01       15.62    
   6176      1     82     34      0.6935E-01       15.62    
   6177      1     82     35      0.6826E-01       15.62    
   6178      1     82     36      0.6823E-01       15.62    
   6179      1     82     37      0.6906E-01       15.62    
   6180      1     82     38      0.6936E-01       15.62    
   6181      1     82     39      0.7038E-01       15.62    
   6182      1     82     40      0.7195E-01       15.62    
   6183      1     82     41      0.7384E-01       15.62    
   6184      1     82     42      0.7322E-01       15.62    
   6185      1     82     43      0.7371E-01       15.62    
   6186      1     82     44      0.7529E-01       15.62    
   6187      1     82     45      0.7636E-01       15.62    
   6188      1     82     46      0.7753E-01       15.62    
   6189      1     82     47      0.7820E-01       15.62    
   6190      1     82     48      0.7750E-01       15.62    
   6191      1     82     49      0.7578E-01       15.62    
   6192      1     82     50      0.7534E-01       15.62    
   6193      1     82     51      0.7593E-01       15.62    
   6194      1     82     52      0.7831E-01       15.62    
   6195      1     82     53      0.8291E-01       15.62    
   6196      1     82     54      0.9131E-01       15.62    
   6197      1     82     55      0.9968E-01       15.62    
   6198      1     82     56      0.1089           15.62    
   6199      1     82     57      0.1216           15.62    
   6200      1     82     58      0.1348           15.62    
   6201      1     82     59      0.1470           15.62    
   6202      1     82     60      0.1603           15.62    
   6203      1     82     61      0.1704           15.62    
   6204      1     82     62      0.1810           15.62    
   6205      1     82     63      0.1926           15.62    
   6206      1     82     64      0.2028           15.62    
   6207      1     82     65      0.2148           15.62    
   6208      1     82     66      0.2283           15.62    
   6209      1     82     67      0.2402           15.62    
   6210      1     82     68      0.2534           15.62    
   6211      1     82     69      0.2645           15.62    
   6212      1     82     70      0.2771           15.62    
   6213      1     82     71      0.2900           15.62    
   6214      1     82     72      0.3005           15.62    
   6215      1     82     73      0.3111           15.62    
   6216      1     82     74      0.3200           15.62    
   6217      1     82     75      0.3267           15.62    
   6218      1     82     76      0.3325           15.62    
   6219      1     82     77      0.3355           15.62    
   6220      1     82     78      0.3366           15.62    
   6221      1     82     79      0.3354           15.62    
   6222      1     82     80      0.3336           15.62    
   6223      1     82     81      0.3308           15.62    
   6224      1     82     82      0.3274           15.62    
   6225      1     82     83      0.3239           15.62    
   6226      1     82     84      0.3202           15.62    
   6227      1     82     85      0.3172           15.62    
   6228      1     82     86      0.3146           15.62    
   6229      1     82     87      0.3129           15.62    
   6230      1     82     88      0.3124           15.62    
   6231      1     82     89      0.3130           15.62    
   6232      1     82     90      0.3147           15.62    
   6233      1     82     91      0.3166           15.62    
   6234      1     82     92      0.3193           15.62    
   6235      1     82     93      0.3217           15.62    
   6236      1     82     94      0.3244           15.62    
   6237      1     82     95      0.3270           15.62    
   6238      1     82     96      0.3290           15.62    
   6239      1     82     97      0.3307           15.62    
   6240      1     82     98      0.3315           15.62    
   6241      1     82     99      0.3317           15.62    
   6242      1     82    100      0.3309           15.62    
   6243      1     83      1      0.9840           15.62    
   6244      1     83      2      0.9704           15.62    
   6245      1     83      3      0.9581           15.62    
   6246      1     83      4      0.9471           15.62    
   6247      1     83      5      0.9411           15.62    
   6248      1     83      6      0.9360           15.62    
   6249      1     83      7      0.9273           15.62    
   6250      1     83      8      0.9141           15.62    
   6251      1     83      9      0.8983           15.62    
   6252      1     83     10      0.8753           15.62    
   6253      1     83     11      0.8507           15.62    
   6254      1     83     12      0.8168           15.62    
   6255      1     83     13      0.7746           15.62    
   6256      1     83     14      0.7343           15.62    
   6257      1     83     15      0.6870           15.62    
   6258      1     83     16      0.6451           15.62    
   6259      1     83     17      0.5973           15.62    
   6260      1     83     18      0.5485           15.62    
   6261      1     83     19      0.5057           15.62    
   6262      1     83     20      0.4602           15.62    
   6263      1     83     21      0.4227           15.62    
   6264      1     83     22      0.3923           15.62    
   6265      1     83     23      0.3560           15.62    
   6266      1     83     24      0.3226           15.62    
   6267      1     83     25      0.2831           15.62    
   6268      1     83     26      0.2420           15.62    
   6269      1     83     27      0.2066           15.62    
   6270      1     83     28      0.1686           15.62    
   6271      1     83     29      0.1354           15.62    
   6272      1     83     30      0.1159           15.62    
   6273      1     83     31      0.1014           15.62    
   6274      1     83     32      0.9273E-01       15.62    
   6275      1     83     33      0.8520E-01       15.62    
   6276      1     83     34      0.7963E-01       15.62    
   6277      1     83     35      0.7584E-01       15.62    
   6278      1     83     36      0.7254E-01       15.62    
   6279      1     83     37      0.7060E-01       15.62    
   6280      1     83     38      0.7009E-01       15.62    
   6281      1     83     39      0.7160E-01       15.62    
   6282      1     83     40      0.7453E-01       15.62    
   6283      1     83     41      0.7913E-01       15.62    
   6284      1     83     42      0.8310E-01       15.62    
   6285      1     83     43      0.8644E-01       15.62    
   6286      1     83     44      0.8984E-01       15.62    
   6287      1     83     45      0.9203E-01       15.62    
   6288      1     83     46      0.9308E-01       15.62    
   6289      1     83     47      0.9360E-01       15.62    
   6290      1     83     48      0.9308E-01       15.62    
   6291      1     83     49      0.9166E-01       15.62    
   6292      1     83     50      0.9102E-01       15.62    
   6293      1     83     51      0.9196E-01       15.62    
   6294      1     83     52      0.9631E-01       15.62    
   6295      1     83     53      0.1034           15.62    
   6296      1     83     54      0.1127           15.62    
   6297      1     83     55      0.1222           15.62    
   6298      1     83     56      0.1318           15.62    
   6299      1     83     57      0.1448           15.62    
   6300      1     83     58      0.1583           15.62    
   6301      1     83     59      0.1710           15.62    
   6302      1     83     60      0.1849           15.62    
   6303      1     83     61      0.1956           15.62    
   6304      1     83     62      0.2064           15.62    
   6305      1     83     63      0.2176           15.62    
   6306      1     83     64      0.2264           15.62    
   6307      1     83     65      0.2358           15.62    
   6308      1     83     66      0.2462           15.62    
   6309      1     83     67      0.2563           15.62    
   6310      1     83     68      0.2671           15.62    
   6311      1     83     69      0.2763           15.62    
   6312      1     83     70      0.2870           15.62    
   6313      1     83     71      0.2986           15.62    
   6314      1     83     72      0.3077           15.62    
   6315      1     83     73      0.3169           15.62    
   6316      1     83     74      0.3249           15.62    
   6317      1     83     75      0.3310           15.62    
   6318      1     83     76      0.3361           15.62    
   6319      1     83     77      0.3381           15.62    
   6320      1     83     78      0.3379           15.62    
   6321      1     83     79      0.3363           15.62    
   6322      1     83     80      0.3345           15.62    
   6323      1     83     81      0.3318           15.62    
   6324      1     83     82      0.3287           15.62    
   6325      1     83     83      0.3257           15.62    
   6326      1     83     84      0.3225           15.62    
   6327      1     83     85      0.3201           15.62    
   6328      1     83     86      0.3179           15.62    
   6329      1     83     87      0.3165           15.62    
   6330      1     83     88      0.3161           15.62    
   6331      1     83     89      0.3166           15.62    
   6332      1     83     90      0.3180           15.62    
   6333      1     83     91      0.3198           15.62    
   6334      1     83     92      0.3222           15.62    
   6335      1     83     93      0.3245           15.62    
   6336      1     83     94      0.3272           15.62    
   6337      1     83     95      0.3299           15.62    
   6338      1     83     96      0.3322           15.62    
   6339      1     83     97      0.3344           15.62    
   6340      1     83     98      0.3353           15.62    
   6341      1     83     99      0.3350           15.62    
   6342      1     83    100      0.3336           15.62    
   6343      1     84      1      0.9842           15.62    
   6344      1     84      2      0.9714           15.62    
   6345      1     84      3      0.9601           15.62    
   6346      1     84      4      0.9499           15.62    
   6347      1     84      5      0.9436           15.62    
   6348      1     84      6      0.9385           15.62    
   6349      1     84      7      0.9306           15.62    
   6350      1     84      8      0.9193           15.62    
   6351      1     84      9      0.9060           15.62    
   6352      1     84     10      0.8864           15.62    
   6353      1     84     11      0.8648           15.62    
   6354      1     84     12      0.8339           15.62    
   6355      1     84     13      0.7947           15.62    
   6356      1     84     14      0.7563           15.62    
   6357      1     84     15      0.7101           15.62    
   6358      1     84     16      0.6693           15.62    
   6359      1     84     17      0.6246           15.62    
   6360      1     84     18      0.5839           15.62    
   6361      1     84     19      0.5514           15.62    
   6362      1     84     20      0.5184           15.62    
   6363      1     84     21      0.4889           15.62    
   6364      1     84     22      0.4576           15.62    
   6365      1     84     23      0.4144           15.62    
   6366      1     84     24      0.3732           15.62    
   6367      1     84     25      0.3265           15.62    
   6368      1     84     26      0.2805           15.62    
   6369      1     84     27      0.2423           15.62    
   6370      1     84     28      0.2028           15.62    
   6371      1     84     29      0.1690           15.62    
   6372      1     84     30      0.1462           15.62    
   6373      1     84     31      0.1270           15.62    
   6374      1     84     32      0.1144           15.62    
   6375      1     84     33      0.1032           15.62    
   6376      1     84     34      0.9457E-01       15.62    
   6377      1     84     35      0.8780E-01       15.62    
   6378      1     84     36      0.8105E-01       15.62    
   6379      1     84     37      0.7706E-01       15.62    
   6380      1     84     38      0.7524E-01       15.62    
   6381      1     84     39      0.7590E-01       15.62    
   6382      1     84     40      0.7921E-01       15.62    
   6383      1     84     41      0.8587E-01       15.62    
   6384      1     84     42      0.9323E-01       15.62    
   6385      1     84     43      0.9840E-01       15.62    
   6386      1     84     44      0.1035           15.62    
   6387      1     84     45      0.1076           15.62    
   6388      1     84     46      0.1095           15.62    
   6389      1     84     47      0.1103           15.62    
   6390      1     84     48      0.1097           15.62    
   6391      1     84     49      0.1079           15.62    
   6392      1     84     50      0.1068           15.62    
   6393      1     84     51      0.1084           15.62    
   6394      1     84     52      0.1140           15.62    
   6395      1     84     53      0.1223           15.62    
   6396      1     84     54      0.1333           15.62    
   6397      1     84     55      0.1446           15.62    
   6398      1     84     56      0.1556           15.62    
   6399      1     84     57      0.1696           15.62    
   6400      1     84     58      0.1837           15.62    
   6401      1     84     59      0.1967           15.62    
   6402      1     84     60      0.2114           15.62    
   6403      1     84     61      0.2228           15.62    
   6404      1     84     62      0.2339           15.62    
   6405      1     84     63      0.2447           15.62    
   6406      1     84     64      0.2522           15.62    
   6407      1     84     65      0.2589           15.62    
   6408      1     84     66      0.2654           15.62    
   6409      1     84     67      0.2731           15.62    
   6410      1     84     68      0.2817           15.62    
   6411      1     84     69      0.2889           15.62    
   6412      1     84     70      0.2972           15.62    
   6413      1     84     71      0.3072           15.62    
   6414      1     84     72      0.3147           15.62    
   6415      1     84     73      0.3223           15.62    
   6416      1     84     74      0.3292           15.62    
   6417      1     84     75      0.3346           15.62    
   6418      1     84     76      0.3388           15.62    
   6419      1     84     77      0.3398           15.62    
   6420      1     84     78      0.3385           15.62    
   6421      1     84     79      0.3366           15.62    
   6422      1     84     80      0.3348           15.62    
   6423      1     84     81      0.3324           15.62    
   6424      1     84     82      0.3297           15.62    
   6425      1     84     83      0.3272           15.62    
   6426      1     84     84      0.3246           15.62    
   6427      1     84     85      0.3226           15.62    
   6428      1     84     86      0.3208           15.62    
   6429      1     84     87      0.3198           15.62    
   6430      1     84     88      0.3195           15.62    
   6431      1     84     89      0.3200           15.62    
   6432      1     84     90      0.3212           15.62    
   6433      1     84     91      0.3229           15.62    
   6434      1     84     92      0.3251           15.62    
   6435      1     84     93      0.3273           15.62    
   6436      1     84     94      0.3300           15.62    
   6437      1     84     95      0.3329           15.62    
   6438      1     84     96      0.3355           15.62    
   6439      1     84     97      0.3383           15.62    
   6440      1     84     98      0.3393           15.62    
   6441      1     84     99      0.3385           15.62    
   6442      1     84    100      0.3364           15.62    
   6443      1     85      1      0.9851           15.62    
   6444      1     85      2      0.9739           15.62    
   6445      1     85      3      0.9643           15.62    
   6446      1     85      4      0.9552           15.62    
   6447      1     85      5      0.9484           15.62    
   6448      1     85      6      0.9428           15.62    
   6449      1     85      7      0.9352           15.62    
   6450      1     85      8      0.9253           15.62    
   6451      1     85      9      0.9141           15.62    
   6452      1     85     10      0.8975           15.62    
   6453      1     85     11      0.8790           15.62    
   6454      1     85     12      0.8511           15.62    
   6455      1     85     13      0.8140           15.62    
   6456      1     85     14      0.7764           15.62    
   6457      1     85     15      0.7303           15.62    
   6458      1     85     16      0.6897           15.62    
   6459      1     85     17      0.6478           15.62    
   6460      1     85     18      0.6139           15.62    
   6461      1     85     19      0.5904           15.62    
   6462      1     85     20      0.5688           15.62    
   6463      1     85     21      0.5502           15.62    
   6464      1     85     22      0.5192           15.62    
   6465      1     85     23      0.4683           15.62    
   6466      1     85     24      0.4203           15.62    
   6467      1     85     25      0.3680           15.62    
   6468      1     85     26      0.3183           15.62    
   6469      1     85     27      0.2781           15.62    
   6470      1     85     28      0.2371           15.62    
   6471      1     85     29      0.2016           15.62    
   6472      1     85     30      0.1764           15.62    
   6473      1     85     31      0.1540           15.62    
   6474      1     85     32      0.1384           15.62    
   6475      1     85     33      0.1238           15.62    
   6476      1     85     34      0.1125           15.62    
   6477      1     85     35      0.1035           15.62    
   6478      1     85     36      0.9425E-01       15.62    
   6479      1     85     37      0.8752E-01       15.62    
   6480      1     85     38      0.8307E-01       15.62    
   6481      1     85     39      0.8269E-01       15.62    
   6482      1     85     40      0.8671E-01       15.62    
   6483      1     85     41      0.9372E-01       15.62    
   6484      1     85     42      0.1019           15.62    
   6485      1     85     43      0.1097           15.62    
   6486      1     85     44      0.1181           15.62    
   6487      1     85     45      0.1238           15.62    
   6488      1     85     46      0.1266           15.62    
   6489      1     85     47      0.1277           15.62    
   6490      1     85     48      0.1268           15.62    
   6491      1     85     49      0.1242           15.62    
   6492      1     85     50      0.1220           15.62    
   6493      1     85     51      0.1240           15.62    
   6494      1     85     52      0.1306           15.62    
   6495      1     85     53      0.1402           15.62    
   6496      1     85     54      0.1527           15.62    
   6497      1     85     55      0.1658           15.62    
   6498      1     85     56      0.1781           15.62    
   6499      1     85     57      0.1930           15.62    
   6500      1     85     58      0.2078           15.62    
   6501      1     85     59      0.2212           15.62    
   6502      1     85     60      0.2367           15.62    
   6503      1     85     61      0.2491           15.62    
   6504      1     85     62      0.2610           15.62    
   6505      1     85     63      0.2708           15.62    
   6506      1     85     64      0.2763           15.62    
   6507      1     85     65      0.2798           15.62    
   6508      1     85     66      0.2834           15.62    
   6509      1     85     67      0.2877           15.62    
   6510      1     85     68      0.2941           15.62    
   6511      1     85     69      0.3002           15.62    
   6512      1     85     70      0.3069           15.62    
   6513      1     85     71      0.3145           15.62    
   6514      1     85     72      0.3201           15.62    
   6515      1     85     73      0.3260           15.62    
   6516      1     85     74      0.3313           15.62    
   6517      1     85     75      0.3356           15.62    
   6518      1     85     76      0.3386           15.62    
   6519      1     85     77      0.3392           15.62    
   6520      1     85     78      0.3377           15.62    
   6521      1     85     79      0.3360           15.62    
   6522      1     85     80      0.3344           15.62    
   6523      1     85     81      0.3324           15.62    
   6524      1     85     82      0.3301           15.62    
   6525      1     85     83      0.3280           15.62    
   6526      1     85     84      0.3259           15.62    
   6527      1     85     85      0.3243           15.62    
   6528      1     85     86      0.3230           15.62    
   6529      1     85     87      0.3222           15.62    
   6530      1     85     88      0.3221           15.62    
   6531      1     85     89      0.3227           15.62    
   6532      1     85     90      0.3238           15.62    
   6533      1     85     91      0.3253           15.62    
   6534      1     85     92      0.3275           15.62    
   6535      1     85     93      0.3297           15.62    
   6536      1     85     94      0.3323           15.62    
   6537      1     85     95      0.3351           15.62    
   6538      1     85     96      0.3376           15.62    
   6539      1     85     97      0.3401           15.62    
   6540      1     85     98      0.3411           15.62    
   6541      1     85     99      0.3404           15.62    
   6542      1     85    100      0.3384           15.62    
   6543      1     86      1      0.9855           15.62    
   6544      1     86      2      0.9757           15.62    
   6545      1     86      3      0.9674           15.62    
   6546      1     86      4      0.9592           15.62    
   6547      1     86      5      0.9524           15.62    
   6548      1     86      6      0.9466           15.62    
   6549      1     86      7      0.9393           15.62    
   6550      1     86      8      0.9304           15.62    
   6551      1     86      9      0.9207           15.62    
   6552      1     86     10      0.9070           15.62    
   6553      1     86     11      0.8916           15.62    
   6554      1     86     12      0.8672           15.62    
   6555      1     86     13      0.8310           15.62    
   6556      1     86     14      0.7931           15.62    
   6557      1     86     15      0.7462           15.62    
   6558      1     86     16      0.7049           15.62    
   6559      1     86     17      0.6641           15.62    
   6560      1     86     18      0.6349           15.62    
   6561      1     86     19      0.6180           15.62    
   6562      1     86     20      0.6034           15.62    
   6563      1     86     21      0.5916           15.62    
   6564      1     86     22      0.5612           15.62    
   6565      1     86     23      0.5063           15.62    
   6566      1     86     24      0.4556           15.62    
   6567      1     86     25      0.4009           15.62    
   6568      1     86     26      0.3494           15.62    
   6569      1     86     27      0.3078           15.62    
   6570      1     86     28      0.2656           15.62    
   6571      1     86     29      0.2287           15.62    
   6572      1     86     30      0.2021           15.62    
   6573      1     86     31      0.1776           15.62    
   6574      1     86     32      0.1602           15.62    
   6575      1     86     33      0.1437           15.62    
   6576      1     86     34      0.1306           15.62    
   6577      1     86     35      0.1205           15.62    
   6578      1     86     36      0.1101           15.62    
   6579      1     86     37      0.1013           15.62    
   6580      1     86     38      0.9466E-01       15.62    
   6581      1     86     39      0.9319E-01       15.62    
   6582      1     86     40      0.9788E-01       15.62    
   6583      1     86     41      0.1051           15.62    
   6584      1     86     42      0.1140           15.62    
   6585      1     86     43      0.1231           15.62    
   6586      1     86     44      0.1331           15.62    
   6587      1     86     45      0.1390           15.62    
   6588      1     86     46      0.1419           15.62    
   6589      1     86     47      0.1431           15.62    
   6590      1     86     48      0.1420           15.62    
   6591      1     86     49      0.1384           15.62    
   6592      1     86     50      0.1353           15.62    
   6593      1     86     51      0.1373           15.62    
   6594      1     86     52      0.1452           15.62    
   6595      1     86     53      0.1563           15.62    
   6596      1     86     54      0.1700           15.62    
   6597      1     86     55      0.1844           15.62    
   6598      1     86     56      0.1973           15.62    
   6599      1     86     57      0.2125           15.62    
   6600      1     86     58      0.2274           15.62    
   6601      1     86     59      0.2409           15.62    
   6602      1     86     60      0.2565           15.62    
   6603      1     86     61      0.2695           15.62    
   6604      1     86     62      0.2835           15.62    
   6605      1     86     63      0.2917           15.62    
   6606      1     86     64      0.2942           15.62    
   6607      1     86     65      0.2942           15.62    
   6608      1     86     66      0.2955           15.62    
   6609      1     86     67      0.2987           15.62    
   6610      1     86     68      0.3035           15.62    
   6611      1     86     69      0.3083           15.62    
   6612      1     86     70      0.3140           15.62    
   6613      1     86     71      0.3193           15.62    
   6614      1     86     72      0.3234           15.62    
   6615      1     86     73      0.3277           15.62    
   6616      1     86     74      0.3315           15.62    
   6617      1     86     75      0.3342           15.62    
   6618      1     86     76      0.3360           15.62    
   6619      1     86     77      0.3364           15.62    
   6620      1     86     78      0.3358           15.62    
   6621      1     86     79      0.3346           15.62    
   6622      1     86     80      0.3333           15.62    
   6623      1     86     81      0.3318           15.62    
   6624      1     86     82      0.3300           15.62    
   6625      1     86     83      0.3282           15.62    
   6626      1     86     84      0.3265           15.62    
   6627      1     86     85      0.3253           15.62    
   6628      1     86     86      0.3243           15.62    
   6629      1     86     87      0.3238           15.62    
   6630      1     86     88      0.3239           15.62    
   6631      1     86     89      0.3245           15.62    
   6632      1     86     90      0.3256           15.62    
   6633      1     86     91      0.3270           15.62    
   6634      1     86     92      0.3291           15.62    
   6635      1     86     93      0.3312           15.62    
   6636      1     86     94      0.3338           15.62    
   6637      1     86     95      0.3364           15.62    
   6638      1     86     96      0.3386           15.62    
   6639      1     86     97      0.3407           15.62    
   6640      1     86     98      0.3415           15.62    
   6641      1     86     99      0.3411           15.62    
   6642      1     86    100      0.3395           15.62    
   6643      1     87      1      0.9846           15.62    
   6644      1     87      2      0.9765           15.62    
   6645      1     87      3      0.9696           15.62    
   6646      1     87      4      0.9623           15.62    
   6647      1     87      5      0.9557           15.62    
   6648      1     87      6      0.9500           15.62    
   6649      1     87      7      0.9431           15.62    
   6650      1     87      8      0.9350           15.62    
   6651      1     87      9      0.9266           15.62    
   6652      1     87     10      0.9151           15.62    
   6653      1     87     11      0.9029           15.62    
   6654      1     87     12      0.8834           15.62    
   6655      1     87     13      0.8484           15.62    
   6656      1     87     14      0.8102           15.62    
   6657      1     87     15      0.7640           15.62    
   6658      1     87     16      0.7228           15.62    
   6659      1     87     17      0.6824           15.62    
   6660      1     87     18      0.6561           15.62    
   6661      1     87     19      0.6434           15.62    
   6662      1     87     20      0.6288           15.62    
   6663      1     87     21      0.6099           15.62    
   6664      1     87     22      0.5807           15.62    
   6665      1     87     23      0.5333           15.62    
   6666      1     87     24      0.4860           15.62    
   6667      1     87     25      0.4325           15.62    
   6668      1     87     26      0.3809           15.62    
   6669      1     87     27      0.3388           15.62    
   6670      1     87     28      0.2957           15.62    
   6671      1     87     29      0.2578           15.62    
   6672      1     87     30      0.2300           15.62    
   6673      1     87     31      0.2041           15.62    
   6674      1     87     32      0.1854           15.62    
   6675      1     87     33      0.1678           15.62    
   6676      1     87     34      0.1536           15.62    
   6677      1     87     35      0.1427           15.62    
   6678      1     87     36      0.1319           15.62    
   6679      1     87     37      0.1232           15.62    
   6680      1     87     38      0.1179           15.62    
   6681      1     87     39      0.1161           15.62    
   6682      1     87     40      0.1185           15.62    
   6683      1     87     41      0.1230           15.62    
   6684      1     87     42      0.1327           15.62    
   6685      1     87     43      0.1428           15.62    
   6686      1     87     44      0.1536           15.62    
   6687      1     87     45      0.1606           15.62    
   6688      1     87     46      0.1636           15.62    
   6689      1     87     47      0.1645           15.62    
   6690      1     87     48      0.1623           15.62    
   6691      1     87     49      0.1561           15.62    
   6692      1     87     50      0.1515           15.62    
   6693      1     87     51      0.1535           15.62    
   6694      1     87     52      0.1623           15.62    
   6695      1     87     53      0.1751           15.62    
   6696      1     87     54      0.1906           15.62    
   6697      1     87     55      0.2061           15.62    
   6698      1     87     56      0.2192           15.62    
   6699      1     87     57      0.2333           15.62    
   6700      1     87     58      0.2476           15.62    
   6701      1     87     59      0.2603           15.62    
   6702      1     87     60      0.2750           15.62    
   6703      1     87     61      0.2880           15.62    
   6704      1     87     62      0.3038           15.62    
   6705      1     87     63      0.3098           15.62    
   6706      1     87     64      0.3096           15.62    
   6707      1     87     65      0.3069           15.62    
   6708      1     87     66      0.3062           15.62    
   6709      1     87     67      0.3083           15.62    
   6710      1     87     68      0.3114           15.62    
   6711      1     87     69      0.3149           15.62    
   6712      1     87     70      0.3202           15.62    
   6713      1     87     71      0.3235           15.62    
   6714      1     87     72      0.3261           15.62    
   6715      1     87     73      0.3287           15.62    
   6716      1     87     74      0.3304           15.62    
   6717      1     87     75      0.3316           15.62    
   6718      1     87     76      0.3324           15.62    
   6719      1     87     77      0.3326           15.62    
   6720      1     87     78      0.3327           15.62    
   6721      1     87     79      0.3323           15.62    
   6722      1     87     80      0.3316           15.62    
   6723      1     87     81      0.3306           15.62    
   6724      1     87     82      0.3294           15.62    
   6725      1     87     83      0.3280           15.62    
   6726      1     87     84      0.3268           15.62    
   6727      1     87     85      0.3259           15.62    
   6728      1     87     86      0.3252           15.62    
   6729      1     87     87      0.3250           15.62    
   6730      1     87     88      0.3252           15.62    
   6731      1     87     89      0.3259           15.62    
   6732      1     87     90      0.3271           15.62    
   6733      1     87     91      0.3285           15.62    
   6734      1     87     92      0.3305           15.62    
   6735      1     87     93      0.3325           15.62    
   6736      1     87     94      0.3349           15.62    
   6737      1     87     95      0.3373           15.62    
   6738      1     87     96      0.3391           15.62    
   6739      1     87     97      0.3407           15.62    
   6740      1     87     98      0.3415           15.62    
   6741      1     87     99      0.3414           15.62    
   6742      1     87    100      0.3405           15.62    
   6743      1     88      1      0.9821           15.62    
   6744      1     88      2      0.9755           15.62    
   6745      1     88      3      0.9698           15.62    
   6746      1     88      4      0.9636           15.62    
   6747      1     88      5      0.9574           15.62    
   6748      1     88      6      0.9519           15.62    
   6749      1     88      7      0.9453           15.62    
   6750      1     88      8      0.9377           15.62    
   6751      1     88      9      0.9298           15.62    
   6752      1     88     10      0.9193           15.62    
   6753      1     88     11      0.9080           15.62    
   6754      1     88     12      0.8898           15.62    
   6755      1     88     13      0.8582           15.62    
   6756      1     88     14      0.8239           15.62    
   6757      1     88     15      0.7824           15.62    
   6758      1     88     16      0.7458           15.62    
   6759      1     88     17      0.7097           15.62    
   6760      1     88     18      0.6842           15.62    
   6761      1     88     19      0.6688           15.62    
   6762      1     88     20      0.6502           15.62    
   6763      1     88     21      0.6260           15.62    
   6764      1     88     22      0.5967           15.62    
   6765      1     88     23      0.5534           15.62    
   6766      1     88     24      0.5099           15.62    
   6767      1     88     25      0.4586           15.62    
   6768      1     88     26      0.4080           15.62    
   6769      1     88     27      0.3659           15.62    
   6770      1     88     28      0.3223           15.62    
   6771      1     88     29      0.2838           15.62    
   6772      1     88     30      0.2554           15.62    
   6773      1     88     31      0.2291           15.62    
   6774      1     88     32      0.2103           15.62    
   6775      1     88     33      0.1926           15.62    
   6776      1     88     34      0.1782           15.62    
   6777      1     88     35      0.1674           15.62    
   6778      1     88     36      0.1573           15.62    
   6779      1     88     37      0.1509           15.62    
   6780      1     88     38      0.1495           15.62    
   6781      1     88     39      0.1487           15.62    
   6782      1     88     40      0.1479           15.62    
   6783      1     88     41      0.1499           15.62    
   6784      1     88     42      0.1588           15.62    
   6785      1     88     43      0.1684           15.62    
   6786      1     88     44      0.1789           15.62    
   6787      1     88     45      0.1866           15.62    
   6788      1     88     46      0.1898           15.62    
   6789      1     88     47      0.1899           15.62    
   6790      1     88     48      0.1867           15.62    
   6791      1     88     49      0.1810           15.62    
   6792      1     88     50      0.1754           15.62    
   6793      1     88     51      0.1767           15.62    
   6794      1     88     52      0.1854           15.62    
   6795      1     88     53      0.1985           15.62    
   6796      1     88     54      0.2139           15.62    
   6797      1     88     55      0.2281           15.62    
   6798      1     88     56      0.2402           15.62    
   6799      1     88     57      0.2541           15.62    
   6800      1     88     58      0.2660           15.62    
   6801      1     88     59      0.2763           15.62    
   6802      1     88     60      0.2887           15.62    
   6803      1     88     61      0.2998           15.62    
   6804      1     88     62      0.3118           15.62    
   6805      1     88     63      0.3173           15.62    
   6806      1     88     64      0.3178           15.62    
   6807      1     88     65      0.3156           15.62    
   6808      1     88     66      0.3146           15.62    
   6809      1     88     67      0.3147           15.62    
   6810      1     88     68      0.3162           15.62    
   6811      1     88     69      0.3191           15.62    
   6812      1     88     70      0.3238           15.62    
   6813      1     88     71      0.3264           15.62    
   6814      1     88     72      0.3279           15.62    
   6815      1     88     73      0.3289           15.62    
   6816      1     88     74      0.3288           15.62    
   6817      1     88     75      0.3285           15.62    
   6818      1     88     76      0.3284           15.62    
   6819      1     88     77      0.3286           15.62    
   6820      1     88     78      0.3293           15.62    
   6821      1     88     79      0.3297           15.62    
   6822      1     88     80      0.3296           15.62    
   6823      1     88     81      0.3292           15.62    
   6824      1     88     82      0.3285           15.62    
   6825      1     88     83      0.3275           15.62    
   6826      1     88     84      0.3266           15.62    
   6827      1     88     85      0.3260           15.62    
   6828      1     88     86      0.3256           15.62    
   6829      1     88     87      0.3256           15.62    
   6830      1     88     88      0.3259           15.62    
   6831      1     88     89      0.3267           15.62    
   6832      1     88     90      0.3280           15.62    
   6833      1     88     91      0.3294           15.62    
   6834      1     88     92      0.3314           15.62    
   6835      1     88     93      0.3333           15.62    
   6836      1     88     94      0.3355           15.62    
   6837      1     88     95      0.3377           15.62    
   6838      1     88     96      0.3394           15.62    
   6839      1     88     97      0.3408           15.62    
   6840      1     88     98      0.3416           15.62    
   6841      1     88     99      0.3417           15.62    
   6842      1     88    100      0.3412           15.62    
   6843      1     89      1      0.9788           15.62    
   6844      1     89      2      0.9734           15.62    
   6845      1     89      3      0.9686           15.62    
   6846      1     89      4      0.9631           15.62    
   6847      1     89      5      0.9575           15.62    
   6848      1     89      6      0.9523           15.62    
   6849      1     89      7      0.9457           15.62    
   6850      1     89      8      0.9381           15.62    
   6851      1     89      9      0.9303           15.62    
   6852      1     89     10      0.9195           15.62    
   6853      1     89     11      0.9077           15.62    
   6854      1     89     12      0.8887           15.62    
   6855      1     89     13      0.8618           15.62    
   6856      1     89     14      0.8333           15.62    
   6857      1     89     15      0.7980           15.62    
   6858      1     89     16      0.7671           15.62    
   6859      1     89     17      0.7356           15.62    
   6860      1     89     18      0.7101           15.62    
   6861      1     89     19      0.6913           15.62    
   6862      1     89     20      0.6689           15.62    
   6863      1     89     21      0.6418           15.62    
   6864      1     89     22      0.6119           15.62    
   6865      1     89     23      0.5701           15.62    
   6866      1     89     24      0.5286           15.62    
   6867      1     89     25      0.4788           15.62    
   6868      1     89     26      0.4288           15.62    
   6869      1     89     27      0.3868           15.62    
   6870      1     89     28      0.3426           15.62    
   6871      1     89     29      0.3037           15.62    
   6872      1     89     30      0.2753           15.62    
   6873      1     89     31      0.2495           15.62    
   6874      1     89     32      0.2314           15.62    
   6875      1     89     33      0.2139           15.62    
   6876      1     89     34      0.2005           15.62    
   6877      1     89     35      0.1911           15.62    
   6878      1     89     36      0.1828           15.62    
   6879      1     89     37      0.1782           15.62    
   6880      1     89     38      0.1789           15.62    
   6881      1     89     39      0.1800           15.62    
   6882      1     89     40      0.1795           15.62    
   6883      1     89     41      0.1821           15.62    
   6884      1     89     42      0.1886           15.62    
   6885      1     89     43      0.1959           15.62    
   6886      1     89     44      0.2050           15.62    
   6887      1     89     45      0.2122           15.62    
   6888      1     89     46      0.2153           15.62    
   6889      1     89     47      0.2153           15.62    
   6890      1     89     48      0.2123           15.62    
   6891      1     89     49      0.2086           15.62    
   6892      1     89     50      0.2041           15.62    
   6893      1     89     51      0.2053           15.62    
   6894      1     89     52      0.2126           15.62    
   6895      1     89     53      0.2234           15.62    
   6896      1     89     54      0.2364           15.62    
   6897      1     89     55      0.2481           15.62    
   6898      1     89     56      0.2582           15.62    
   6899      1     89     57      0.2700           15.62    
   6900      1     89     58      0.2796           15.62    
   6901      1     89     59      0.2877           15.62    
   6902      1     89     60      0.2975           15.62    
   6903      1     89     61      0.3061           15.62    
   6904      1     89     62      0.3147           15.62    
   6905      1     89     63      0.3195           15.62    
   6906      1     89     64      0.3208           15.62    
   6907      1     89     65      0.3200           15.62    
   6908      1     89     66      0.3195           15.62    
   6909      1     89     67      0.3194           15.62    
   6910      1     89     68      0.3205           15.62    
   6911      1     89     69      0.3225           15.62    
   6912      1     89     70      0.3248           15.62    
   6913      1     89     71      0.3277           15.62    
   6914      1     89     72      0.3289           15.62    
   6915      1     89     73      0.3285           15.62    
   6916      1     89     74      0.3274           15.62    
   6917      1     89     75      0.3258           15.62    
   6918      1     89     76      0.3249           15.62    
   6919      1     89     77      0.3253           15.62    
   6920      1     89     78      0.3267           15.62    
   6921      1     89     79      0.3277           15.62    
   6922      1     89     80      0.3281           15.62    
   6923      1     89     81      0.3280           15.62    
   6924      1     89     82      0.3276           15.62    
   6925      1     89     83      0.3269           15.62    
   6926      1     89     84      0.3262           15.62    
   6927      1     89     85      0.3258           15.62    
   6928      1     89     86      0.3255           15.62    
   6929      1     89     87      0.3256           15.62    
   6930      1     89     88      0.3261           15.62    
   6931      1     89     89      0.3270           15.62    
   6932      1     89     90      0.3284           15.62    
   6933      1     89     91      0.3299           15.62    
   6934      1     89     92      0.3319           15.62    
   6935      1     89     93      0.3337           15.62    
   6936      1     89     94      0.3358           15.62    
   6937      1     89     95      0.3379           15.62    
   6938      1     89     96      0.3395           15.62    
   6939      1     89     97      0.3409           15.62    
   6940      1     89     98      0.3417           15.62    
   6941      1     89     99      0.3420           15.62    
   6942      1     89    100      0.3419           15.62    
   6943      1     90      1      0.9739           15.62    
   6944      1     90      2      0.9699           15.62    
   6945      1     90      3      0.9659           15.62    
   6946      1     90      4      0.9611           15.62    
   6947      1     90      5      0.9560           15.62    
   6948      1     90      6      0.9509           15.62    
   6949      1     90      7      0.9442           15.62    
   6950      1     90      8      0.9366           15.62    
   6951      1     90      9      0.9287           15.62    
   6952      1     90     10      0.9177           15.62    
   6953      1     90     11      0.9057           15.62    
   6954      1     90     12      0.8879           15.62    
   6955      1     90     13      0.8653           15.62    
   6956      1     90     14      0.8423           15.62    
   6957      1     90     15      0.8140           15.62    
   6958      1     90     16      0.7890           15.62    
   6959      1     90     17      0.7619           15.62    
   6960      1     90     18      0.7371           15.62    
   6961      1     90     19      0.7163           15.62    
   6962      1     90     20      0.6912           15.62    
   6963      1     90     21      0.6620           15.62    
   6964      1     90     22      0.6315           15.62    
   6965      1     90     23      0.5898           15.62    
   6966      1     90     24      0.5492           15.62    
   6967      1     90     25      0.5003           15.62    
   6968      1     90     26      0.4506           15.62    
   6969      1     90     27      0.4083           15.62    
   6970      1     90     28      0.3635           15.62    
   6971      1     90     29      0.3235           15.62    
   6972      1     90     30      0.2953           15.62    
   6973      1     90     31      0.2710           15.62    
   6974      1     90     32      0.2540           15.62    
   6975      1     90     33      0.2382           15.62    
   6976      1     90     34      0.2267           15.62    
   6977      1     90     35      0.2191           15.62    
   6978      1     90     36      0.2127           15.62    
   6979      1     90     37      0.2097           15.62    
   6980      1     90     38      0.2106           15.62    
   6981      1     90     39      0.2137           15.62    
   6982      1     90     40      0.2179           15.62    
   6983      1     90     41      0.2216           15.62    
   6984      1     90     42      0.2263           15.62    
   6985      1     90     43      0.2315           15.62    
   6986      1     90     44      0.2384           15.62    
   6987      1     90     45      0.2435           15.62    
   6988      1     90     46      0.2461           15.62    
   6989      1     90     47      0.2474           15.62    
   6990      1     90     48      0.2468           15.62    
   6991      1     90     49      0.2453           15.62    
   6992      1     90     50      0.2441           15.62    
   6993      1     90     51      0.2455           15.62    
   6994      1     90     52      0.2496           15.62    
   6995      1     90     53      0.2556           15.62    
   6996      1     90     54      0.2638           15.62    
   6997      1     90     55      0.2718           15.62    
   6998      1     90     56      0.2789           15.62    
   6999      1     90     57      0.2874           15.62    
   7000      1     90     58      0.2943           15.62    
   7001      1     90     59      0.2996           15.62    
   7002      1     90     60      0.3058           15.62    
   7003      1     90     61      0.3115           15.62    
   7004      1     90     62      0.3165           15.62    
   7005      1     90     63      0.3203           15.62    
   7006      1     90     64      0.3223           15.62    
   7007      1     90     65      0.3230           15.62    
   7008      1     90     66      0.3234           15.62    
   7009      1     90     67      0.3240           15.62    
   7010      1     90     68      0.3250           15.62    
   7011      1     90     69      0.3260           15.62    
   7012      1     90     70      0.3269           15.62    
   7013      1     90     71      0.3282           15.62    
   7014      1     90     72      0.3284           15.62    
   7015      1     90     73      0.3275           15.62    
   7016      1     90     74      0.3264           15.62    
   7017      1     90     75      0.3236           15.62    
   7018      1     90     76      0.3221           15.62    
   7019      1     90     77      0.3227           15.62    
   7020      1     90     78      0.3248           15.62    
   7021      1     90     79      0.3262           15.62    
   7022      1     90     80      0.3268           15.62    
   7023      1     90     81      0.3270           15.62    
   7024      1     90     82      0.3267           15.62    
   7025      1     90     83      0.3262           15.62    
   7026      1     90     84      0.3256           15.62    
   7027      1     90     85      0.3252           15.62    
   7028      1     90     86      0.3250           15.62    
   7029      1     90     87      0.3252           15.62    
   7030      1     90     88      0.3258           15.62    
   7031      1     90     89      0.3269           15.62    
   7032      1     90     90      0.3285           15.62    
   7033      1     90     91      0.3301           15.62    
   7034      1     90     92      0.3321           15.62    
   7035      1     90     93      0.3339           15.62    
   7036      1     90     94      0.3360           15.62    
   7037      1     90     95      0.3380           15.62    
   7038      1     90     96      0.3396           15.62    
   7039      1     90     97      0.3410           15.62    
   7040      1     90     98      0.3419           15.62    
   7041      1     90     99      0.3424           15.62    
   7042      1     90    100      0.3425           15.62    
   7043      1     91      1      0.9689           15.62    
   7044      1     91      2      0.9659           15.62    
   7045      1     91      3      0.9626           15.62    
   7046      1     91      4      0.9584           15.62    
   7047      1     91      5      0.9534           15.62    
   7048      1     91      6      0.9484           15.62    
   7049      1     91      7      0.9417           15.62    
   7050      1     91      8      0.9340           15.62    
   7051      1     91      9      0.9260           15.62    
   7052      1     91     10      0.9152           15.62    
   7053      1     91     11      0.9036           15.62    
   7054      1     91     12      0.8874           15.62    
   7055      1     91     13      0.8679           15.62    
   7056      1     91     14      0.8487           15.62    
   7057      1     91     15      0.8256           15.62    
   7058      1     91     16      0.8052           15.62    
   7059      1     91     17      0.7816           15.62    
   7060      1     91     18      0.7580           15.62    
   7061      1     91     19      0.7369           15.62    
   7062      1     91     20      0.7109           15.62    
   7063      1     91     21      0.6811           15.62    
   7064      1     91     22      0.6502           15.62    
   7065      1     91     23      0.6081           15.62    
   7066      1     91     24      0.5674           15.62    
   7067      1     91     25      0.5184           15.62    
   7068      1     91     26      0.4685           15.62    
   7069      1     91     27      0.4259           15.62    
   7070      1     91     28      0.3806           15.62    
   7071      1     91     29      0.3400           15.62    
   7072      1     91     30      0.3121           15.62    
   7073      1     91     31      0.2892           15.62    
   7074      1     91     32      0.2736           15.62    
   7075      1     91     33      0.2599           15.62    
   7076      1     91     34      0.2504           15.62    
   7077      1     91     35      0.2444           15.62    
   7078      1     91     36      0.2399           15.62    
   7079      1     91     37      0.2383           15.62    
   7080      1     91     38      0.2396           15.62    
   7081      1     91     39      0.2443           15.62    
   7082      1     91     40      0.2520           15.62    
   7083      1     91     41      0.2567           15.62    
   7084      1     91     42      0.2604           15.62    
   7085      1     91     43      0.2640           15.62    
   7086      1     91     44      0.2685           15.62    
   7087      1     91     45      0.2719           15.62    
   7088      1     91     46      0.2739           15.62    
   7089      1     91     47      0.2766           15.62    
   7090      1     91     48      0.2786           15.62    
   7091      1     91     49      0.2793           15.62    
   7092      1     91     50      0.2799           15.62    
   7093      1     91     51      0.2810           15.62    
   7094      1     91     52      0.2824           15.62    
   7095      1     91     53      0.2847           15.62    
   7096      1     91     54      0.2888           15.62    
   7097      1     91     55      0.2931           15.62    
   7098      1     91     56      0.2974           15.62    
   7099      1     91     57      0.3030           15.62    
   7100      1     91     58      0.3070           15.62    
   7101      1     91     59      0.3095           15.62    
   7102      1     91     60      0.3125           15.62    
   7103      1     91     61      0.3158           15.62    
   7104      1     91     62      0.3181           15.62    
   7105      1     91     63      0.3209           15.62    
   7106      1     91     64      0.3233           15.62    
   7107      1     91     65      0.3249           15.62    
   7108      1     91     66      0.3261           15.62    
   7109      1     91     67      0.3273           15.62    
   7110      1     91     68      0.3282           15.62    
   7111      1     91     69      0.3286           15.62    
   7112      1     91     70      0.3291           15.62    
   7113      1     91     71      0.3293           15.62    
   7114      1     91     72      0.3290           15.62    
   7115      1     91     73      0.3280           15.62    
   7116      1     91     74      0.3266           15.62    
   7117      1     91     75      0.3243           15.62    
   7118      1     91     76      0.3230           15.62    
   7119      1     91     77      0.3235           15.62    
   7120      1     91     78      0.3249           15.62    
   7121      1     91     79      0.3259           15.62    
   7122      1     91     80      0.3264           15.62    
   7123      1     91     81      0.3265           15.62    
   7124      1     91     82      0.3261           15.62    
   7125      1     91     83      0.3256           15.62    
   7126      1     91     84      0.3249           15.62    
   7127      1     91     85      0.3245           15.62    
   7128      1     91     86      0.3243           15.62    
   7129      1     91     87      0.3246           15.62    
   7130      1     91     88      0.3253           15.62    
   7131      1     91     89      0.3266           15.62    
   7132      1     91     90      0.3282           15.62    
   7133      1     91     91      0.3299           15.62    
   7134      1     91     92      0.3321           15.62    
   7135      1     91     93      0.3339           15.62    
   7136      1     91     94      0.3361           15.62    
   7137      1     91     95      0.3381           15.62    
   7138      1     91     96      0.3397           15.62    
   7139      1     91     97      0.3412           15.62    
   7140      1     91     98      0.3421           15.62    
   7141      1     91     99      0.3428           15.62    
   7142      1     91    100      0.3430           15.62    
   7143      1     92      1      0.9627           15.62    
   7144      1     92      2      0.9605           15.62    
   7145      1     92      3      0.9579           15.62    
   7146      1     92      4      0.9542           15.62    
   7147      1     92      5      0.9495           15.62    
   7148      1     92      6      0.9444           15.62    
   7149      1     92      7      0.9378           15.62    
   7150      1     92      8      0.9299           15.62    
   7151      1     92      9      0.9220           15.62    
   7152      1     92     10      0.9115           15.62    
   7153      1     92     11      0.9007           15.62    
   7154      1     92     12      0.8862           15.62    
   7155      1     92     13      0.8697           15.62    
   7156      1     92     14      0.8541           15.62    
   7157      1     92     15      0.8356           15.62    
   7158      1     92     16      0.8195           15.62    
   7159      1     92     17      0.7996           15.62    
   7160      1     92     18      0.7781           15.62    
   7161      1     92     19      0.7577           15.62    
   7162      1     92     20      0.7324           15.62    
   7163      1     92     21      0.7030           15.62    
   7164      1     92     22      0.6722           15.62    
   7165      1     92     23      0.6297           15.62    
   7166      1     92     24      0.5885           15.62    
   7167      1     92     25      0.5389           15.62    
   7168      1     92     26      0.4881           15.62    
   7169      1     92     27      0.4449           15.62    
   7170      1     92     28      0.3993           15.62    
   7171      1     92     29      0.3600           15.62    
   7172      1     92     30      0.3327           15.62    
   7173      1     92     31      0.3104           15.62    
   7174      1     92     32      0.2964           15.62    
   7175      1     92     33      0.2851           15.62    
   7176      1     92     34      0.2779           15.62    
   7177      1     92     35      0.2738           15.62    
   7178      1     92     36      0.2714           15.62    
   7179      1     92     37      0.2714           15.62    
   7180      1     92     38      0.2739           15.62    
   7181      1     92     39      0.2796           15.62    
   7182      1     92     40      0.2885           15.62    
   7183      1     92     41      0.2952           15.62    
   7184      1     92     42      0.2989           15.62    
   7185      1     92     43      0.3008           15.62    
   7186      1     92     44      0.3028           15.62    
   7187      1     92     45      0.3046           15.62    
   7188      1     92     46      0.3067           15.62    
   7189      1     92     47      0.3110           15.62    
   7190      1     92     48      0.3152           15.62    
   7191      1     92     49      0.3181           15.62    
   7192      1     92     50      0.3204           15.62    
   7193      1     92     51      0.3210           15.62    
   7194      1     92     52      0.3190           15.62    
   7195      1     92     53      0.3173           15.62    
   7196      1     92     54      0.3168           15.62    
   7197      1     92     55      0.3168           15.62    
   7198      1     92     56      0.3176           15.62    
   7199      1     92     57      0.3197           15.62    
   7200      1     92     58      0.3200           15.62    
   7201      1     92     59      0.3200           15.62    
   7202      1     92     60      0.3205           15.62    
   7203      1     92     61      0.3210           15.62    
   7204      1     92     62      0.3209           15.62    
   7205      1     92     63      0.3228           15.62    
   7206      1     92     64      0.3253           15.62    
   7207      1     92     65      0.3272           15.62    
   7208      1     92     66      0.3291           15.62    
   7209      1     92     67      0.3303           15.62    
   7210      1     92     68      0.3310           15.62    
   7211      1     92     69      0.3313           15.62    
   7212      1     92     70      0.3317           15.62    
   7213      1     92     71      0.3314           15.62    
   7214      1     92     72      0.3308           15.62    
   7215      1     92     73      0.3298           15.62    
   7216      1     92     74      0.3284           15.62    
   7217      1     92     75      0.3269           15.62    
   7218      1     92     76      0.3260           15.62    
   7219      1     92     77      0.3260           15.62    
   7220      1     92     78      0.3264           15.62    
   7221      1     92     79      0.3267           15.62    
   7222      1     92     80      0.3267           15.62    
   7223      1     92     81      0.3264           15.62    
   7224      1     92     82      0.3257           15.62    
   7225      1     92     83      0.3250           15.62    
   7226      1     92     84      0.3241           15.62    
   7227      1     92     85      0.3235           15.62    
   7228      1     92     86      0.3231           15.62    
   7229      1     92     87      0.3235           15.62    
   7230      1     92     88      0.3244           15.62    
   7231      1     92     89      0.3259           15.62    
   7232      1     92     90      0.3278           15.62    
   7233      1     92     91      0.3296           15.62    
   7234      1     92     92      0.3319           15.62    
   7235      1     92     93      0.3339           15.62    
   7236      1     92     94      0.3361           15.62    
   7237      1     92     95      0.3382           15.62    
   7238      1     92     96      0.3398           15.62    
   7239      1     92     97      0.3414           15.62    
   7240      1     92     98      0.3424           15.62    
   7241      1     92     99      0.3431           15.62    
   7242      1     92    100      0.3435           15.62    
   7243      1     93      1      0.9559           15.62    
   7244      1     93      2      0.9544           15.62    
   7245      1     93      3      0.9525           15.62    
   7246      1     93      4      0.9491           15.62    
   7247      1     93      5      0.9445           15.62    
   7248      1     93      6      0.9395           15.62    
   7249      1     93      7      0.9328           15.62    
   7250      1     93      8      0.9249           15.62    
   7251      1     93      9      0.9172           15.62    
   7252      1     93     10      0.9072           15.62    
   7253      1     93     11      0.8971           15.62    
   7254      1     93     12      0.8842           15.62    
   7255      1     93     13      0.8700           15.62    
   7256      1     93     14      0.8569           15.62    
   7257      1     93     15      0.8417           15.62    
   7258      1     93     16      0.8285           15.62    
   7259      1     93     17      0.8120           15.62    
   7260      1     93     18      0.7934           15.62    
   7261      1     93     19      0.7755           15.62    
   7262      1     93     20      0.7525           15.62    
   7263      1     93     21      0.7246           15.62    
   7264      1     93     22      0.6946           15.62    
   7265      1     93     23      0.6521           15.62    
   7266      1     93     24      0.6101           15.62    
   7267      1     93     25      0.5593           15.62    
   7268      1     93     26      0.5072           15.62    
   7269      1     93     27      0.4626           15.62    
   7270      1     93     28      0.4159           15.62    
   7271      1     93     29      0.3769           15.62    
   7272      1     93     30      0.3506           15.62    
   7273      1     93     31      0.3302           15.62    
   7274      1     93     32      0.3185           15.62    
   7275      1     93     33      0.3097           15.62    
   7276      1     93     34      0.3048           15.62    
   7277      1     93     35      0.3025           15.62    
   7278      1     93     36      0.3019           15.62    
   7279      1     93     37      0.3036           15.62    
   7280      1     93     38      0.3071           15.62    
   7281      1     93     39      0.3130           15.62    
   7282      1     93     40      0.3204           15.62    
   7283      1     93     41      0.3299           15.62    
   7284      1     93     42      0.3346           15.62    
   7285      1     93     43      0.3353           15.62    
   7286      1     93     44      0.3355           15.62    
   7287      1     93     45      0.3362           15.62    
   7288      1     93     46      0.3385           15.62    
   7289      1     93     47      0.3434           15.62    
   7290      1     93     48      0.3483           15.62    
   7291      1     93     49      0.3538           15.62    
   7292      1     93     50      0.3589           15.62    
   7293      1     93     51      0.3592           15.62    
   7294      1     93     52      0.3522           15.62    
   7295      1     93     53      0.3466           15.62    
   7296      1     93     54      0.3418           15.62    
   7297      1     93     55      0.3380           15.62    
   7298      1     93     56      0.3356           15.62    
   7299      1     93     57      0.3334           15.62    
   7300      1     93     58      0.3311           15.62    
   7301      1     93     59      0.3297           15.62    
   7302      1     93     60      0.3289           15.62    
   7303      1     93     61      0.3280           15.62    
   7304      1     93     62      0.3271           15.62    
   7305      1     93     63      0.3278           15.62    
   7306      1     93     64      0.3291           15.62    
   7307      1     93     65      0.3306           15.62    
   7308      1     93     66      0.3319           15.62    
   7309      1     93     67      0.3330           15.62    
   7310      1     93     68      0.3337           15.62    
   7311      1     93     69      0.3340           15.62    
   7312      1     93     70      0.3342           15.62    
   7313      1     93     71      0.3339           15.62    
   7314      1     93     72      0.3333           15.62    
   7315      1     93     73      0.3325           15.62    
   7316      1     93     74      0.3315           15.62    
   7317      1     93     75      0.3306           15.62    
   7318      1     93     76      0.3297           15.62    
   7319      1     93     77      0.3292           15.62    
   7320      1     93     78      0.3287           15.62    
   7321      1     93     79      0.3281           15.62    
   7322      1     93     80      0.3275           15.62    
   7323      1     93     81      0.3267           15.62    
   7324      1     93     82      0.3256           15.62    
   7325      1     93     83      0.3246           15.62    
   7326      1     93     84      0.3234           15.62    
   7327      1     93     85      0.3224           15.62    
   7328      1     93     86      0.3218           15.62    
   7329      1     93     87      0.3221           15.62    
   7330      1     93     88      0.3232           15.62    
   7331      1     93     89      0.3250           15.62    
   7332      1     93     90      0.3272           15.62    
   7333      1     93     91      0.3292           15.62    
   7334      1     93     92      0.3316           15.62    
   7335      1     93     93      0.3337           15.62    
   7336      1     93     94      0.3360           15.62    
   7337      1     93     95      0.3382           15.62    
   7338      1     93     96      0.3400           15.62    
   7339      1     93     97      0.3416           15.62    
   7340      1     93     98      0.3427           15.62    
   7341      1     93     99      0.3434           15.62    
   7342      1     93    100      0.3439           15.62    
   7343      1     94      1      0.9497           15.62    
   7344      1     94      2      0.9487           15.62    
   7345      1     94      3      0.9471           15.62    
   7346      1     94      4      0.9441           15.62    
   7347      1     94      5      0.9394           15.62    
   7348      1     94      6      0.9342           15.62    
   7349      1     94      7      0.9275           15.62    
   7350      1     94      8      0.9198           15.62    
   7351      1     94      9      0.9122           15.62    
   7352      1     94     10      0.9027           15.62    
   7353      1     94     11      0.8932           15.62    
   7354      1     94     12      0.8813           15.62    
   7355      1     94     13      0.8686           15.62    
   7356      1     94     14      0.8571           15.62    
   7357      1     94     15      0.8437           15.62    
   7358      1     94     16      0.8321           15.62    
   7359      1     94     17      0.8181           15.62    
   7360      1     94     18      0.8030           15.62    
   7361      1     94     19      0.7884           15.62    
   7362      1     94     20      0.7688           15.62    
   7363      1     94     21      0.7437           15.62    
   7364      1     94     22      0.7152           15.62    
   7365      1     94     23      0.6724           15.62    
   7366      1     94     24      0.6295           15.62    
   7367      1     94     25      0.5774           15.62    
   7368      1     94     26      0.5238           15.62    
   7369      1     94     27      0.4776           15.62    
   7370      1     94     28      0.4286           15.62    
   7371      1     94     29      0.3889           15.62    
   7372      1     94     30      0.3637           15.62    
   7373      1     94     31      0.3467           15.62    
   7374      1     94     32      0.3378           15.62    
   7375      1     94     33      0.3315           15.62    
   7376      1     94     34      0.3285           15.62    
   7377      1     94     35      0.3276           15.62    
   7378      1     94     36      0.3281           15.62    
   7379      1     94     37      0.3308           15.62    
   7380      1     94     38      0.3351           15.62    
   7381      1     94     39      0.3412           15.62    
   7382      1     94     40      0.3483           15.62    
   7383      1     94     41      0.3568           15.62    
   7384      1     94     42      0.3610           15.62    
   7385      1     94     43      0.3617           15.62    
   7386      1     94     44      0.3616           15.62    
   7387      1     94     45      0.3620           15.62    
   7388      1     94     46      0.3637           15.62    
   7389      1     94     47      0.3677           15.62    
   7390      1     94     48      0.3726           15.62    
   7391      1     94     49      0.3801           15.62    
   7392      1     94     50      0.3870           15.62    
   7393      1     94     51      0.3869           15.62    
   7394      1     94     52      0.3765           15.62    
   7395      1     94     53      0.3684           15.62    
   7396      1     94     54      0.3607           15.62    
   7397      1     94     55      0.3541           15.62    
   7398      1     94     56      0.3492           15.62    
   7399      1     94     57      0.3444           15.62    
   7400      1     94     58      0.3404           15.62    
   7401      1     94     59      0.3378           15.62    
   7402      1     94     60      0.3359           15.62    
   7403      1     94     61      0.3342           15.62    
   7404      1     94     62      0.3328           15.62    
   7405      1     94     63      0.3326           15.62    
   7406      1     94     64      0.3331           15.62    
   7407      1     94     65      0.3337           15.62    
   7408      1     94     66      0.3346           15.62    
   7409      1     94     67      0.3354           15.62    
   7410      1     94     68      0.3359           15.62    
   7411      1     94     69      0.3361           15.62    
   7412      1     94     70      0.3363           15.62    
   7413      1     94     71      0.3361           15.62    
   7414      1     94     72      0.3357           15.62    
   7415      1     94     73      0.3351           15.62    
   7416      1     94     74      0.3345           15.62    
   7417      1     94     75      0.3338           15.62    
   7418      1     94     76      0.3330           15.62    
   7419      1     94     77      0.3322           15.62    
   7420      1     94     78      0.3310           15.62    
   7421      1     94     79      0.3297           15.62    
   7422      1     94     80      0.3286           15.62    
   7423      1     94     81      0.3272           15.62    
   7424      1     94     82      0.3258           15.62    
   7425      1     94     83      0.3244           15.62    
   7426      1     94     84      0.3229           15.62    
   7427      1     94     85      0.3217           15.62    
   7428      1     94     86      0.3206           15.62    
   7429      1     94     87      0.3210           15.62    
   7430      1     94     88      0.3223           15.62    
   7431      1     94     89      0.3244           15.62    
   7432      1     94     90      0.3268           15.62    
   7433      1     94     91      0.3289           15.62    
   7434      1     94     92      0.3314           15.62    
   7435      1     94     93      0.3335           15.62    
   7436      1     94     94      0.3359           15.62    
   7437      1     94     95      0.3382           15.62    
   7438      1     94     96      0.3401           15.62    
   7439      1     94     97      0.3419           15.62    
   7440      1     94     98      0.3429           15.62    
   7441      1     94     99      0.3436           15.62    
   7442      1     94    100      0.3440           15.62    
   7443      1     95      1      0.9422           15.62    
   7444      1     95      2      0.9414           15.62    
   7445      1     95      3      0.9400           15.62    
   7446      1     95      4      0.9371           15.62    
   7447      1     95      5      0.9325           15.62    
   7448      1     95      6      0.9274           15.62    
   7449      1     95      7      0.9208           15.62    
   7450      1     95      8      0.9132           15.62    
   7451      1     95      9      0.9059           15.62    
   7452      1     95     10      0.8967           15.62    
   7453      1     95     11      0.8878           15.62    
   7454      1     95     12      0.8768           15.62    
   7455      1     95     13      0.8652           15.62    
   7456      1     95     14      0.8549           15.62    
   7457      1     95     15      0.8430           15.62    
   7458      1     95     16      0.8330           15.62    
   7459      1     95     17      0.8218           15.62    
   7460      1     95     18      0.8105           15.62    
   7461      1     95     19      0.8000           15.62    
   7462      1     95     20      0.7858           15.62    
   7463      1     95     21      0.7657           15.62    
   7464      1     95     22      0.7398           15.62    
   7465      1     95     23      0.6957           15.62    
   7466      1     95     24      0.6515           15.62    
   7467      1     95     25      0.5984           15.62    
   7468      1     95     26      0.5435           15.62    
   7469      1     95     27      0.4956           15.62    
   7470      1     95     28      0.4432           15.62    
   7471      1     95     29      0.4017           15.62    
   7472      1     95     30      0.3778           15.62    
   7473      1     95     31      0.3667           15.62    
   7474      1     95     32      0.3613           15.62    
   7475      1     95     33      0.3575           15.62    
   7476      1     95     34      0.3560           15.62    
   7477      1     95     35      0.3560           15.62    
   7478      1     95     36      0.3573           15.62    
   7479      1     95     37      0.3605           15.62    
   7480      1     95     38      0.3650           15.62    
   7481      1     95     39      0.3712           15.62    
   7482      1     95     40      0.3777           15.62    
   7483      1     95     41      0.3847           15.62    
   7484      1     95     42      0.3880           15.62    
   7485      1     95     43      0.3881           15.62    
   7486      1     95     44      0.3875           15.62    
   7487      1     95     45      0.3875           15.62    
   7488      1     95     46      0.3888           15.62    
   7489      1     95     47      0.3922           15.62    
   7490      1     95     48      0.3963           15.62    
   7491      1     95     49      0.4018           15.62    
   7492      1     95     50      0.4055           15.62    
   7493      1     95     51      0.4043           15.62    
   7494      1     95     52      0.3957           15.62    
   7495      1     95     53      0.3872           15.62    
   7496      1     95     54      0.3780           15.62    
   7497      1     95     55      0.3691           15.62    
   7498      1     95     56      0.3620           15.62    
   7499      1     95     57      0.3559           15.62    
   7500      1     95     58      0.3505           15.62    
   7501      1     95     59      0.3467           15.62    
   7502      1     95     60      0.3433           15.62    
   7503      1     95     61      0.3408           15.62    
   7504      1     95     62      0.3386           15.62    
   7505      1     95     63      0.3376           15.62    
   7506      1     95     64      0.3375           15.62    
   7507      1     95     65      0.3375           15.62    
   7508      1     95     66      0.3378           15.62    
   7509      1     95     67      0.3380           15.62    
   7510      1     95     68      0.3383           15.62    
   7511      1     95     69      0.3384           15.62    
   7512      1     95     70      0.3385           15.62    
   7513      1     95     71      0.3384           15.62    
   7514      1     95     72      0.3382           15.62    
   7515      1     95     73      0.3380           15.62    
   7516      1     95     74      0.3378           15.62    
   7517      1     95     75      0.3375           15.62    
   7518      1     95     76      0.3367           15.62    
   7519      1     95     77      0.3355           15.62    
   7520      1     95     78      0.3336           15.62    
   7521      1     95     79      0.3317           15.62    
   7522      1     95     80      0.3300           15.62    
   7523      1     95     81      0.3280           15.62    
   7524      1     95     82      0.3262           15.62    
   7525      1     95     83      0.3246           15.62    
   7526      1     95     84      0.3228           15.62    
   7527      1     95     85      0.3213           15.62    
   7528      1     95     86      0.3198           15.62    
   7529      1     95     87      0.3202           15.62    
   7530      1     95     88      0.3217           15.62    
   7531      1     95     89      0.3240           15.62    
   7532      1     95     90      0.3264           15.62    
   7533      1     95     91      0.3286           15.62    
   7534      1     95     92      0.3311           15.62    
   7535      1     95     93      0.3333           15.62    
   7536      1     95     94      0.3357           15.62    
   7537      1     95     95      0.3381           15.62    
   7538      1     95     96      0.3400           15.62    
   7539      1     95     97      0.3418           15.62    
   7540      1     95     98      0.3428           15.62    
   7541      1     95     99      0.3435           15.62    
   7542      1     95    100      0.3439           15.62    
   7543      1     96      1      0.9344           15.62    
   7544      1     96      2      0.9335           15.62    
   7545      1     96      3      0.9320           15.62    
   7546      1     96      4      0.9291           15.62    
   7547      1     96      5      0.9246           15.62    
   7548      1     96      6      0.9197           15.62    
   7549      1     96      7      0.9134           15.62    
   7550      1     96      8      0.9060           15.62    
   7551      1     96      9      0.8989           15.62    
   7552      1     96     10      0.8900           15.62    
   7553      1     96     11      0.8815           15.62    
   7554      1     96     12      0.8710           15.62    
   7555      1     96     13      0.8602           15.62    
   7556      1     96     14      0.8505           15.62    
   7557      1     96     15      0.8396           15.62    
   7558      1     96     16      0.8308           15.62    
   7559      1     96     17      0.8220           15.62    
   7560      1     96     18      0.8142           15.62    
   7561      1     96     19      0.8072           15.62    
   7562      1     96     20      0.7978           15.62    
   7563      1     96     21      0.7834           15.62    
   7564      1     96     22      0.7614           15.62    
   7565      1     96     23      0.7161           15.62    
   7566      1     96     24      0.6718           15.62    
   7567      1     96     25      0.6194           15.62    
   7568      1     96     26      0.5651           15.62    
   7569      1     96     27      0.5171           15.62    
   7570      1     96     28      0.4630           15.62    
   7571      1     96     29      0.4201           15.62    
   7572      1     96     30      0.3973           15.62    
   7573      1     96     31      0.3915           15.62    
   7574      1     96     32      0.3882           15.62    
   7575      1     96     33      0.3854           15.62    
   7576      1     96     34      0.3842           15.62    
   7577      1     96     35      0.3842           15.62    
   7578      1     96     36      0.3854           15.62    
   7579      1     96     37      0.3884           15.62    
   7580      1     96     38      0.3926           15.62    
   7581      1     96     39      0.3985           15.62    
   7582      1     96     40      0.4046           15.62    
   7583      1     96     41      0.4106           15.62    
   7584      1     96     42      0.4127           15.62    
   7585      1     96     43      0.4116           15.62    
   7586      1     96     44      0.4096           15.62    
   7587      1     96     45      0.4089           15.62    
   7588      1     96     46      0.4094           15.62    
   7589      1     96     47      0.4117           15.62    
   7590      1     96     48      0.4147           15.62    
   7591      1     96     49      0.4182           15.62    
   7592      1     96     50      0.4196           15.62    
   7593      1     96     51      0.4174           15.62    
   7594      1     96     52      0.4093           15.62    
   7595      1     96     53      0.4006           15.62    
   7596      1     96     54      0.3904           15.62    
   7597      1     96     55      0.3803           15.62    
   7598      1     96     56      0.3727           15.62    
   7599      1     96     57      0.3653           15.62    
   7600      1     96     58      0.3591           15.62    
   7601      1     96     59      0.3544           15.62    
   7602      1     96     60      0.3499           15.62    
   7603      1     96     61      0.3467           15.62    
   7604      1     96     62      0.3438           15.62    
   7605      1     96     63      0.3420           15.62    
   7606      1     96     64      0.3413           15.62    
   7607      1     96     65      0.3410           15.62    
   7608      1     96     66      0.3407           15.62    
   7609      1     96     67      0.3405           15.62    
   7610      1     96     68      0.3405           15.62    
   7611      1     96     69      0.3405           15.62    
   7612      1     96     70      0.3405           15.62    
   7613      1     96     71      0.3404           15.62    
   7614      1     96     72      0.3404           15.62    
   7615      1     96     73      0.3404           15.62    
   7616      1     96     74      0.3405           15.62    
   7617      1     96     75      0.3406           15.62    
   7618      1     96     76      0.3399           15.62    
   7619      1     96     77      0.3382           15.62    
   7620      1     96     78      0.3357           15.62    
   7621      1     96     79      0.3333           15.62    
   7622      1     96     80      0.3312           15.62    
   7623      1     96     81      0.3290           15.62    
   7624      1     96     82      0.3268           15.62    
   7625      1     96     83      0.3250           15.62    
   7626      1     96     84      0.3232           15.62    
   7627      1     96     85      0.3217           15.62    
   7628      1     96     86      0.3206           15.62    
   7629      1     96     87      0.3209           15.62    
   7630      1     96     88      0.3220           15.62    
   7631      1     96     89      0.3241           15.62    
   7632      1     96     90      0.3264           15.62    
   7633      1     96     91      0.3285           15.62    
   7634      1     96     92      0.3309           15.62    
   7635      1     96     93      0.3331           15.62    
   7636      1     96     94      0.3355           15.62    
   7637      1     96     95      0.3377           15.62    
   7638      1     96     96      0.3395           15.62    
   7639      1     96     97      0.3413           15.62    
   7640      1     96     98      0.3423           15.62    
   7641      1     96     99      0.3431           15.62    
   7642      1     96    100      0.3436           15.62    
   7643      1     97      1      0.9274           15.62    
   7644      1     97      2      0.9264           15.62    
   7645      1     97      3      0.9247           15.62    
   7646      1     97      4      0.9217           15.62    
   7647      1     97      5      0.9173           15.62    
   7648      1     97      6      0.9125           15.62    
   7649      1     97      7      0.9063           15.62    
   7650      1     97      8      0.8991           15.62    
   7651      1     97      9      0.8922           15.62    
   7652      1     97     10      0.8835           15.62    
   7653      1     97     11      0.8753           15.62    
   7654      1     97     12      0.8652           15.62    
   7655      1     97     13      0.8549           15.62    
   7656      1     97     14      0.8456           15.62    
   7657      1     97     15      0.8348           15.62    
   7658      1     97     16      0.8267           15.62    
   7659      1     97     17      0.8195           15.62    
   7660      1     97     18      0.8145           15.62    
   7661      1     97     19      0.8098           15.62    
   7662      1     97     20      0.8023           15.62    
   7663      1     97     21      0.7888           15.62    
   7664      1     97     22      0.7680           15.62    
   7665      1     97     23      0.7275           15.62    
   7666      1     97     24      0.6867           15.62    
   7667      1     97     25      0.6374           15.62    
   7668      1     97     26      0.5863           15.62    
   7669      1     97     27      0.5413           15.62    
   7670      1     97     28      0.4923           15.62    
   7671      1     97     29      0.4532           15.62    
   7672      1     97     30      0.4309           15.62    
   7673      1     97     31      0.4213           15.62    
   7674      1     97     32      0.4162           15.62    
   7675      1     97     33      0.4119           15.62    
   7676      1     97     34      0.4096           15.62    
   7677      1     97     35      0.4088           15.62    
   7678      1     97     36      0.4090           15.62    
   7679      1     97     37      0.4113           15.62    
   7680      1     97     38      0.4148           15.62    
   7681      1     97     39      0.4200           15.62    
   7682      1     97     40      0.4256           15.62    
   7683      1     97     41      0.4308           15.62    
   7684      1     97     42      0.4318           15.62    
   7685      1     97     43      0.4293           15.62    
   7686      1     97     44      0.4260           15.62    
   7687      1     97     45      0.4243           15.62    
   7688      1     97     46      0.4239           15.62    
   7689      1     97     47      0.4250           15.62    
   7690      1     97     48      0.4268           15.62    
   7691      1     97     49      0.4292           15.62    
   7692      1     97     50      0.4297           15.62    
   7693      1     97     51      0.4270           15.62    
   7694      1     97     52      0.4181           15.62    
   7695      1     97     53      0.4087           15.62    
   7696      1     97     54      0.3979           15.62    
   7697      1     97     55      0.3877           15.62    
   7698      1     97     56      0.3799           15.62    
   7699      1     97     57      0.3719           15.62    
   7700      1     97     58      0.3652           15.62    
   7701      1     97     59      0.3601           15.62    
   7702      1     97     60      0.3551           15.62    
   7703      1     97     61      0.3513           15.62    
   7704      1     97     62      0.3479           15.62    
   7705      1     97     63      0.3456           15.62    
   7706      1     97     64      0.3444           15.62    
   7707      1     97     65      0.3436           15.62    
   7708      1     97     66      0.3429           15.62    
   7709      1     97     67      0.3424           15.62    
   7710      1     97     68      0.3422           15.62    
   7711      1     97     69      0.3421           15.62    
   7712      1     97     70      0.3420           15.62    
   7713      1     97     71      0.3419           15.62    
   7714      1     97     72      0.3419           15.62    
   7715      1     97     73      0.3420           15.62    
   7716      1     97     74      0.3421           15.62    
   7717      1     97     75      0.3423           15.62    
   7718      1     97     76      0.3417           15.62    
   7719      1     97     77      0.3397           15.62    
   7720      1     97     78      0.3370           15.62    
   7721      1     97     79      0.3343           15.62    
   7722      1     97     80      0.3321           15.62    
   7723      1     97     81      0.3297           15.62    
   7724      1     97     82      0.3274           15.62    
   7725      1     97     83      0.3256           15.62    
   7726      1     97     84      0.3237           15.62    
   7727      1     97     85      0.3224           15.62    
   7728      1     97     86      0.3216           15.62    
   7729      1     97     87      0.3217           15.62    
   7730      1     97     88      0.3226           15.62    
   7731      1     97     89      0.3243           15.62    
   7732      1     97     90      0.3264           15.62    
   7733      1     97     91      0.3284           15.62    
   7734      1     97     92      0.3308           15.62    
   7735      1     97     93      0.3329           15.62    
   7736      1     97     94      0.3352           15.62    
   7737      1     97     95      0.3373           15.62    
   7738      1     97     96      0.3390           15.62    
   7739      1     97     97      0.3406           15.62    
   7740      1     97     98      0.3417           15.62    
   7741      1     97     99      0.3425           15.62    
   7742      1     97    100      0.3431           15.62    
   7743      1     98      1      0.9196           15.62    
   7744      1     98      2      0.9182           15.62    
   7745      1     98      3      0.9162           15.62    
   7746      1     98      4      0.9130           15.62    
   7747      1     98      5      0.9086           15.62    
   7748      1     98      6      0.9039           15.62    
   7749      1     98      7      0.8978           15.62    
   7750      1     98      8      0.8907           15.62    
   7751      1     98      9      0.8839           15.62    
   7752      1     98     10      0.8756           15.62    
   7753      1     98     11      0.8677           15.62    
   7754      1     98     12      0.8580           15.62    
   7755      1     98     13      0.8481           15.62    
   7756      1     98     14      0.8390           15.62    
   7757      1     98     15      0.8284           15.62    
   7758      1     98     16      0.8207           15.62    
   7759      1     98     17      0.8150           15.62    
   7760      1     98     18      0.8129           15.62    
   7761      1     98     19      0.8101           15.62    
   7762      1     98     20      0.8034           15.62    
   7763      1     98     21      0.7901           15.62    
   7764      1     98     22      0.7705           15.62    
   7765      1     98     23      0.7371           15.62    
   7766      1     98     24      0.7017           15.62    
   7767      1     98     25      0.6577           15.62    
   7768      1     98     26      0.6117           15.62    
   7769      1     98     27      0.5718           15.62    
   7770      1     98     28      0.5301           15.62    
   7771      1     98     29      0.4959           15.62    
   7772      1     98     30      0.4741           15.62    
   7773      1     98     31      0.4599           15.62    
   7774      1     98     32      0.4513           15.62    
   7775      1     98     33      0.4436           15.62    
   7776      1     98     34      0.4386           15.62    
   7777      1     98     35      0.4360           15.62    
   7778      1     98     36      0.4344           15.62    
   7779      1     98     37      0.4350           15.62    
   7780      1     98     38      0.4371           15.62    
   7781      1     98     39      0.4408           15.62    
   7782      1     98     40      0.4448           15.62    
   7783      1     98     41      0.4481           15.62    
   7784      1     98     42      0.4480           15.62    
   7785      1     98     43      0.4451           15.62    
   7786      1     98     44      0.4410           15.62    
   7787      1     98     45      0.4379           15.62    
   7788      1     98     46      0.4363           15.62    
   7789      1     98     47      0.4358           15.62    
   7790      1     98     48      0.4363           15.62    
   7791      1     98     49      0.4374           15.62    
   7792      1     98     50      0.4372           15.62    
   7793      1     98     51      0.4339           15.62    
   7794      1     98     52      0.4242           15.62    
   7795      1     98     53      0.4144           15.62    
   7796      1     98     54      0.4036           15.62    
   7797      1     98     55      0.3936           15.62    
   7798      1     98     56      0.3858           15.62    
   7799      1     98     57      0.3776           15.62    
   7800      1     98     58      0.3704           15.62    
   7801      1     98     59      0.3650           15.62    
   7802      1     98     60      0.3596           15.62    
   7803      1     98     61      0.3556           15.62    
   7804      1     98     62      0.3519           15.62    
   7805      1     98     63      0.3491           15.62    
   7806      1     98     64      0.3474           15.62    
   7807      1     98     65      0.3460           15.62    
   7808      1     98     66      0.3449           15.62    
   7809      1     98     67      0.3442           15.62    
   7810      1     98     68      0.3438           15.62    
   7811      1     98     69      0.3437           15.62    
   7812      1     98     70      0.3435           15.62    
   7813      1     98     71      0.3432           15.62    
   7814      1     98     72      0.3431           15.62    
   7815      1     98     73      0.3431           15.62    
   7816      1     98     74      0.3430           15.62    
   7817      1     98     75      0.3428           15.62    
   7818      1     98     76      0.3418           15.62    
   7819      1     98     77      0.3402           15.62    
   7820      1     98     78      0.3377           15.62    
   7821      1     98     79      0.3351           15.62    
   7822      1     98     80      0.3328           15.62    
   7823      1     98     81      0.3303           15.62    
   7824      1     98     82      0.3280           15.62    
   7825      1     98     83      0.3262           15.62    
   7826      1     98     84      0.3244           15.62    
   7827      1     98     85      0.3231           15.62    
   7828      1     98     86      0.3224           15.62    
   7829      1     98     87      0.3225           15.62    
   7830      1     98     88      0.3232           15.62    
   7831      1     98     89      0.3247           15.62    
   7832      1     98     90      0.3266           15.62    
   7833      1     98     91      0.3284           15.62    
   7834      1     98     92      0.3307           15.62    
   7835      1     98     93      0.3327           15.62    
   7836      1     98     94      0.3349           15.62    
   7837      1     98     95      0.3369           15.62    
   7838      1     98     96      0.3385           15.62    
   7839      1     98     97      0.3400           15.62    
   7840      1     98     98      0.3410           15.62    
   7841      1     98     99      0.3419           15.62    
   7842      1     98    100      0.3425           15.62    
   7843      1     99      1      0.9128           15.62    
   7844      1     99      2      0.9111           15.62    
   7845      1     99      3      0.9088           15.62    
   7846      1     99      4      0.9054           15.62    
   7847      1     99      5      0.9008           15.62    
   7848      1     99      6      0.8960           15.62    
   7849      1     99      7      0.8900           15.62    
   7850      1     99      8      0.8831           15.62    
   7851      1     99      9      0.8764           15.62    
   7852      1     99     10      0.8683           15.62    
   7853      1     99     11      0.8607           15.62    
   7854      1     99     12      0.8514           15.62    
   7855      1     99     13      0.8419           15.62    
   7856      1     99     14      0.8333           15.62    
   7857      1     99     15      0.8235           15.62    
   7858      1     99     16      0.8166           15.62    
   7859      1     99     17      0.8120           15.62    
   7860      1     99     18      0.8112           15.62    
   7861      1     99     19      0.8095           15.62    
   7862      1     99     20      0.8038           15.62    
   7863      1     99     21      0.7919           15.62    
   7864      1     99     22      0.7744           15.62    
   7865      1     99     23      0.7453           15.62    
   7866      1     99     24      0.7141           15.62    
   7867      1     99     25      0.6750           15.62    
   7868      1     99     26      0.6339           15.62    
   7869      1     99     27      0.5987           15.62    
   7870      1     99     28      0.5627           15.62    
   7871      1     99     29      0.5323           15.62    
   7872      1     99     30      0.5114           15.62    
   7873      1     99     31      0.4943           15.62    
   7874      1     99     32      0.4823           15.62    
   7875      1     99     33      0.4711           15.62    
   7876      1     99     34      0.4631           15.62    
   7877      1     99     35      0.4583           15.62    
   7878      1     99     36      0.4547           15.62    
   7879      1     99     37      0.4535           15.62    
   7880      1     99     38      0.4540           15.62    
   7881      1     99     39      0.4559           15.62    
   7882      1     99     40      0.4581           15.62    
   7883      1     99     41      0.4595           15.62    
   7884      1     99     42      0.4584           15.62    
   7885      1     99     43      0.4552           15.62    
   7886      1     99     44      0.4509           15.62    
   7887      1     99     45      0.4466           15.62    
   7888      1     99     46      0.4436           15.62    
   7889      1     99     47      0.4416           15.62    
   7890      1     99     48      0.4407           15.62    
   7891      1     99     49      0.4399           15.62    
   7892      1     99     50      0.4379           15.62    
   7893      1     99     51      0.4338           15.62    
   7894      1     99     52      0.4252           15.62    
   7895      1     99     53      0.4165           15.62    
   7896      1     99     54      0.4063           15.62    
   7897      1     99     55      0.3966           15.62    
   7898      1     99     56      0.3890           15.62    
   7899      1     99     57      0.3807           15.62    
   7900      1     99     58      0.3735           15.62    
   7901      1     99     59      0.3680           15.62    
   7902      1     99     60      0.3625           15.62    
   7903      1     99     61      0.3583           15.62    
   7904      1     99     62      0.3545           15.62    
   7905      1     99     63      0.3514           15.62    
   7906      1     99     64      0.3494           15.62    
   7907      1     99     65      0.3476           15.62    
   7908      1     99     66      0.3463           15.62    
   7909      1     99     67      0.3455           15.62    
   7910      1     99     68      0.3449           15.62    
   7911      1     99     69      0.3446           15.62    
   7912      1     99     70      0.3443           15.62    
   7913      1     99     71      0.3441           15.62    
   7914      1     99     72      0.3439           15.62    
   7915      1     99     73      0.3437           15.62    
   7916      1     99     74      0.3434           15.62    
   7917      1     99     75      0.3428           15.62    
   7918      1     99     76      0.3417           15.62    
   7919      1     99     77      0.3402           15.62    
   7920      1     99     78      0.3379           15.62    
   7921      1     99     79      0.3354           15.62    
   7922      1     99     80      0.3332           15.62    
   7923      1     99     81      0.3307           15.62    
   7924      1     99     82      0.3284           15.62    
   7925      1     99     83      0.3266           15.62    
   7926      1     99     84      0.3248           15.62    
   7927      1     99     85      0.3236           15.62    
   7928      1     99     86      0.3229           15.62    
   7929      1     99     87      0.3230           15.62    
   7930      1     99     88      0.3236           15.62    
   7931      1     99     89      0.3249           15.62    
   7932      1     99     90      0.3267           15.62    
   7933      1     99     91      0.3285           15.62    
   7934      1     99     92      0.3307           15.62    
   7935      1     99     93      0.3326           15.62    
   7936      1     99     94      0.3347           15.62    
   7937      1     99     95      0.3366           15.62    
   7938      1     99     96      0.3381           15.62    
   7939      1     99     97      0.3395           15.62    
   7940      1     99     98      0.3405           15.62    
   7941      1     99     99      0.3413           15.62    
   7942      1     99    100      0.3418           15.62    
   7943      1    100      1      0.9051           15.62    
   7944      1    100      2      0.9029           15.62    
   7945      1    100      3      0.9002           15.62    
   7946      1    100      4      0.8965           15.62    
   7947      1    100      5      0.8917           15.62    
   7948      1    100      6      0.8869           15.62    
   7949      1    100      7      0.8809           15.62    
   7950      1    100      8      0.8741           15.62    
   7951      1    100      9      0.8676           15.62    
   7952      1    100     10      0.8597           15.62    
   7953      1    100     11      0.8523           15.62    
   7954      1    100     12      0.8435           15.62    
   7955      1    100     13      0.8347           15.62    
   7956      1    100     14      0.8270           15.62    
   7957      1    100     15      0.8188           15.62    
   7958      1    100     16      0.8135           15.62    
   7959      1    100     17      0.8102           15.62    
   7960      1    100     18      0.8098           15.62    
   7961      1    100     19      0.8091           15.62    
   7962      1    100     20      0.8053           15.62    
   7963      1    100     21      0.7961           15.62    
   7964      1    100     22      0.7815           15.62    
   7965      1    100     23      0.7559           15.62    
   7966      1    100     24      0.7282           15.62    
   7967      1    100     25      0.6935           15.62    
   7968      1    100     26      0.6575           15.62    
   7969      1    100     27      0.6270           15.62    
   7970      1    100     28      0.5962           15.62    
   7971      1    100     29      0.5696           15.62    
   7972      1    100     30      0.5503           15.62    
   7973      1    100     31      0.5315           15.62    
   7974      1    100     32      0.5162           15.62    
   7975      1    100     33      0.5008           15.62    
   7976      1    100     34      0.4891           15.62    
   7977      1    100     35      0.4816           15.62    
   7978      1    100     36      0.4754           15.62    
   7979      1    100     37      0.4719           15.62    
   7980      1    100     38      0.4705           15.62    
   7981      1    100     39      0.4703           15.62    
   7982      1    100     40      0.4706           15.62    
   7983      1    100     41      0.4703           15.62    
   7984      1    100     42      0.4678           15.62    
   7985      1    100     43      0.4639           15.62    
   7986      1    100     44      0.4587           15.62    
   7987      1    100     45      0.4532           15.62    
   7988      1    100     46      0.4488           15.62    
   7989      1    100     47      0.4447           15.62    
   7990      1    100     48      0.4420           15.62    
   7991      1    100     49      0.4390           15.62    
   7992      1    100     50      0.4351           15.62    
   7993      1    100     51      0.4303           15.62    
   7994      1    100     52      0.4228           15.62    
   7995      1    100     53      0.4154           15.62    
   7996      1    100     54      0.4066           15.62    
   7997      1    100     55      0.3979           15.62    
   7998      1    100     56      0.3905           15.62    
   7999      1    100     57      0.3826           15.62    
   8000      1    100     58      0.3756           15.62    
   8001      1    100     59      0.3701           15.62    
   8002      1    100     60      0.3645           15.62    
   8003      1    100     61      0.3604           15.62    
   8004      1    100     62      0.3564           15.62    
   8005      1    100     63      0.3531           15.62    
   8006      1    100     64      0.3509           15.62    
   8007      1    100     65      0.3489           15.62    
   8008      1    100     66      0.3474           15.62    
   8009      1    100     67      0.3465           15.62    
   8010      1    100     68      0.3457           15.62    
   8011      1    100     69      0.3452           15.62    
   8012      1    100     70      0.3449           15.62    
   8013      1    100     71      0.3446           15.62    
   8014      1    100     72      0.3444           15.62    
   8015      1    100     73      0.3440           15.62    
   8016      1    100     74      0.3435           15.62    
   8017      1    100     75      0.3428           15.62    
   8018      1    100     76      0.3416           15.62    
   8019      1    100     77      0.3401           15.62    
   8020      1    100     78      0.3380           15.62    
   8021      1    100     79      0.3356           15.62    
   8022      1    100     80      0.3335           15.62    
   8023      1    100     81      0.3310           15.62    
   8024      1    100     82      0.3287           15.62    
   8025      1    100     83      0.3268           15.62    
   8026      1    100     84      0.3251           15.62    
   8027      1    100     85      0.3239           15.62    
   8028      1    100     86      0.3232           15.62    
   8029      1    100     87      0.3233           15.62    
   8030      1    100     88      0.3238           15.62    
   8031      1    100     89      0.3251           15.62    
   8032      1    100     90      0.3268           15.62    
   8033      1    100     91      0.3286           15.62    
   8034      1    100     92      0.3307           15.62    
   8035      1    100     93      0.3325           15.62    
   8036      1    100     94      0.3346           15.62    
   8037      1    100     95      0.3365           15.62    
   8038      1    100     96      0.3379           15.62    
   8039      1    100     97      0.3392           15.62    
   8040      1    100     98      0.3400           15.62    
   8041      1    100     99      0.3406           15.62    
   8042      1    100    100      0.3410           15.62    

   8042 GHB CELLS



                           RECHARGE
 READING ON UNIT   19 WITH FORMAT: (100E15.6)          
 
 SOLVING FOR HEAD 

 NO OUTPUT CONTROL FOR STRESS PERIOD    1   TIME STEP    1
 SOLVING FOR ZETA FOR LAYER     1 ZONE     2

    4998 UPPER PART EQS.      4998 LOWER PART EQS.    BAND WIDTH + 1 =  101
 STRESS PERIOD=  1 TIMESTEP=  1 LAYER=  1 ZONE=  2 ACTIVE CELLS= 9996 NUMBER OF EQUATIONS=    9996
 
 SOLVING FOR HEAD 

 NO OUTPUT CONTROL FOR STRESS PERIOD    1   TIME STEP    2
 SOLVING FOR ZETA FOR LAYER     1 ZONE     2

    4933 UPPER PART EQS.      4937 LOWER PART EQS.    BAND WIDTH + 1 =  102
 STRESS PERIOD=  1 TIMESTEP=  2 LAYER=  1 ZONE=  2 ACTIVE CELLS= 9870 NUMBER OF EQUATIONS=    9870
 
 SOLVING FOR HEAD 

 NO OUTPUT CONTROL FOR STRESS PERIOD    1   TIME STEP    3
 SOLVING FOR ZETA FOR LAYER     1 ZONE     2

    4962 UPPER PART EQS.      4961 LOWER PART EQS.    BAND WIDTH + 1 =  104
 STRESS PERIOD=  1 TIMESTEP=  3 LAYER=  1 ZONE=  2 ACTIVE CELLS= 9923 NUMBER OF EQUATIONS=    9923
 
 SOLVING FOR HEAD 

 NO OUTPUT CONTROL FOR STRESS PERIOD    1   TIME STEP    4
 SOLVING FOR ZETA FOR LAYER     1 ZONE     2

    4924 UPPER PART EQS.      4929 LOWER PART EQS.    BAND WIDTH + 1 =  101
 STRESS PERIOD=  1 TIMESTEP=  4 LAYER=  1 ZONE=  2 ACTIVE CELLS= 9853 NUMBER OF EQUATIONS=    9853
 
 SOLVING FOR HEAD 

 NO OUTPUT CONTROL FOR STRESS PERIOD    1   TIME STEP    5
 SOLVING FOR ZETA FOR LAYER     1 ZONE     2

    4961 UPPER PART EQS.      4957 LOWER PART EQS.    BAND WIDTH + 1 =  105
 STRESS PERIOD=  1 TIMESTEP=  5 LAYER=  1 ZONE=  2 ACTIVE CELLS= 9918 NUMBER OF EQUATIONS=    9918
 
 SOLVING FOR HEAD 

 NO OUTPUT CONTROL FOR STRESS PERIOD    1   TIME STEP    6
 SOLVING FOR ZETA FOR LAYER     1 ZONE     2

    4924 UPPER PART EQS.      4929 LOWER PART EQS.    BAND WIDTH + 1 =  101
 STRESS PERIOD=  1 TIMESTEP=  6 LAYER=  1 ZONE=  2 ACTIVE CELLS= 9853 NUMBER OF EQUATIONS=    9853
 
 SOLVING FOR HEAD 

 NO OUTPUT CONTROL FOR STRESS PERIOD    1   TIME STEP    7
 SOLVING FOR ZETA FOR LAYER     1 ZONE     2

    4961 UPPER PART EQS.      4957 LOWER PART EQS.    BAND WIDTH + 1 =  105
 STRESS PERIOD=  1 TIMESTEP=  7 LAYER=  1 ZONE=  2 ACTIVE CELLS= 9918 NUMBER OF EQUATIONS=    9918
 
 SOLVING FOR HEAD 

 NO OUTPUT CONTROL FOR STRESS PERIOD    1   TIME STEP    8
 SOLVING FOR ZETA FOR LAYER     1 ZONE     2

    4924 UPPER PART EQS.      4929 LOWER PART EQS.    BAND WIDTH + 1 =  101
 STRESS PERIOD=  1 TIMESTEP=  8 LAYER=  1 ZONE=  2 ACTIVE CELLS= 9853 NUMBER OF EQUATIONS=    9853
 
 SOLVING FOR HEAD 

 NO OUTPUT CONTROL FOR STRESS PERIOD    1   TIME STEP    9
 SOLVING FOR ZETA FOR LAYER     1 ZONE     2

    4961 UPPER PART EQS.      4957 LOWER PART EQS.    BAND WIDTH + 1 =  105
 STRESS PERIOD=  1 TIMESTEP=  9 LAYER=  1 ZONE=  2 ACTIVE CELLS= 9918 NUMBER OF EQUATIONS=    9918
 
 SOLVING FOR HEAD 

 NO OUTPUT CONTROL FOR STRESS PERIOD    1   TIME STEP   10
 SOLVING FOR ZETA FOR LAYER     1 ZONE     2

    4924 UPPER PART EQS.      4929 LOWER PART EQS.    BAND WIDTH + 1 =  101
 STRESS PERIOD=  1 TIMESTEP= 10 LAYER=  1 ZONE=  2 ACTIVE CELLS= 9853 NUMBER OF EQUATIONS=    9853
 
 SOLVING FOR HEAD 

 NO OUTPUT CONTROL FOR STRESS PERIOD    1   TIME STEP   11
 SOLVING FOR ZETA FOR LAYER     1 ZONE     2

    4961 UPPER PART EQS.      4957 LOWER PART EQS.    BAND WIDTH + 1 =  105
 STRESS PERIOD=  1 TIMESTEP= 11 LAYER=  1 ZONE=  2 ACTIVE CELLS= 9918 NUMBER OF EQUATIONS=    9918
 
 SOLVING FOR HEAD 

 NO OUTPUT CONTROL FOR STRESS PERIOD    1   TIME STEP   12
 SOLVING FOR ZETA FOR LAYER     1 ZONE     2

    4924 UPPER PART EQS.      4929 LOWER PART EQS.    BAND WIDTH + 1 =  101
 STRESS PERIOD=  1 TIMESTEP= 12 LAYER=  1 ZONE=  2 ACTIVE CELLS= 9853 NUMBER OF EQUATIONS=    9853
 
 SOLVING FOR HEAD 

 NO OUTPUT CONTROL FOR STRESS PERIOD    1   TIME STEP   13
 SOLVING FOR ZETA FOR LAYER     1 ZONE     2

    4961 UPPER PART EQS.      4957 LOWER PART EQS.    BAND WIDTH + 1 =  105
 STRESS PERIOD=  1 TIMESTEP= 13 LAYER=  1 ZONE=  2 ACTIVE CELLS= 9918 NUMBER OF EQUATIONS=    9918
 
 SOLVING FOR HEAD 

 NO OUTPUT CONTROL FOR STRESS PERIOD    1   TIME STEP   14
 SOLVING FOR ZETA FOR LAYER     1 ZONE     2

    4924 UPPER PART EQS.      4929 LOWER PART EQS.    BAND WIDTH + 1 =  101
 STRESS PERIOD=  1 TIMESTEP= 14 LAYER=  1 ZONE=  2 ACTIVE CELLS= 9853 NUMBER OF EQUATIONS=    9853
 
 SOLVING FOR HEAD 

 NO OUTPUT CONTROL FOR STRESS PERIOD    1   TIME STEP   15
 SOLVING FOR ZETA FOR LAYER     1 ZONE     2

    4961 UPPER PART EQS.      4956 LOWER PART EQS.    BAND WIDTH + 1 =  105
 STRESS PERIOD=  1 TIMESTEP= 15 LAYER=  1 ZONE=  2 ACTIVE CELLS= 9917 NUMBER OF EQUATIONS=    9917
 
 SOLVING FOR HEAD 

 NO OUTPUT CONTROL FOR STRESS PERIOD    1   TIME STEP   16
 SOLVING FOR ZETA FOR LAYER     1 ZONE     2

    4921 UPPER PART EQS.      4927 LOWER PART EQS.    BAND WIDTH + 1 =  102
 STRESS PERIOD=  1 TIMESTEP= 16 LAYER=  1 ZONE=  2 ACTIVE CELLS= 9848 NUMBER OF EQUATIONS=    9848
 
 SOLVING FOR HEAD 

 NO OUTPUT CONTROL FOR STRESS PERIOD    1   TIME STEP   17
 SOLVING FOR ZETA FOR LAYER     1 ZONE     2

    4959 UPPER PART EQS.      4955 LOWER PART EQS.    BAND WIDTH + 1 =  106
 INSUFFICIENT MEMORY FOR DE4 SOLVER:
 MXBW MUST BE AT LEAST  106
 
 SOLVING FOR HEAD 

 NO OUTPUT CONTROL FOR STRESS PERIOD    1   TIME STEP   18
 SOLVING FOR ZETA FOR LAYER     1 ZONE     2

    4992 UPPER PART EQS.      4993 LOWER PART EQS.    BAND WIDTH + 1 =  101
 STRESS PERIOD=  1 TIMESTEP= 18 LAYER=  1 ZONE=  2 ACTIVE CELLS= 9985 NUMBER OF EQUATIONS=    9985
 
 SOLVING FOR HEAD 

 NO OUTPUT CONTROL FOR STRESS PERIOD    1   TIME STEP   19
 SOLVING FOR ZETA FOR LAYER     1 ZONE     2

    4885 UPPER PART EQS.      4885 LOWER PART EQS.    BAND WIDTH + 1 =  107
 INSUFFICIENT MEMORY FOR DE4 SOLVER:
 MXBW MUST BE AT LEAST  107
 
 SOLVING FOR HEAD 

 NO OUTPUT CONTROL FOR STRESS PERIOD    1   TIME STEP   20
 SOLVING FOR ZETA FOR LAYER     1 ZONE     2

    4992 UPPER PART EQS.      4993 LOWER PART EQS.    BAND WIDTH + 1 =  101
 STRESS PERIOD=  1 TIMESTEP= 20 LAYER=  1 ZONE=  2 ACTIVE CELLS= 9985 NUMBER OF EQUATIONS=    9985
 
 SOLVING FOR HEAD 

 NO OUTPUT CONTROL FOR STRESS PERIOD    1   TIME STEP   21
 SOLVING FOR ZETA FOR LAYER     1 ZONE     2

    4884 UPPER PART EQS.      4878 LOWER PART EQS.    BAND WIDTH + 1 =  108
 INSUFFICIENT MEMORY FOR DE4 SOLVER:
 MXBW MUST BE AT LEAST  108
 
 SOLVING FOR HEAD 

 NO OUTPUT CONTROL FOR STRESS PERIOD    1   TIME STEP   22
 SOLVING FOR ZETA FOR LAYER     1 ZONE     2

    4992 UPPER PART EQS.      4993 LOWER PART EQS.    BAND WIDTH + 1 =  101
 STRESS PERIOD=  1 TIMESTEP= 22 LAYER=  1 ZONE=  2 ACTIVE CELLS= 9985 NUMBER OF EQUATIONS=    9985
 
 SOLVING FOR HEAD 

 NO OUTPUT CONTROL FOR STRESS PERIOD    1   TIME STEP   23
 SOLVING FOR ZETA FOR LAYER     1 ZONE     2

    4880 UPPER PART EQS.      4877 LOWER PART EQS.    BAND WIDTH + 1 =  107
 INSUFFICIENT MEMORY FOR DE4 SOLVER:
 MXBW MUST BE AT LEAST  107
 
 SOLVING FOR HEAD 

 NO OUTPUT CONTROL FOR STRESS PERIOD    1   TIME STEP   24
 SOLVING FOR ZETA FOR LAYER     1 ZONE     2

    4992 UPPER PART EQS.      4993 LOWER PART EQS.    BAND WIDTH + 1 =  101
 STRESS PERIOD=  1 TIMESTEP= 24 LAYER=  1 ZONE=  2 ACTIVE CELLS= 9985 NUMBER OF EQUATIONS=    9985
 
 SOLVING FOR HEAD 

 NO OUTPUT CONTROL FOR STRESS PERIOD    1   TIME STEP   25
 SOLVING FOR ZETA FOR LAYER     1 ZONE     2

    4876 UPPER PART EQS.      4874 LOWER PART EQS.    BAND WIDTH + 1 =  108
 INSUFFICIENT MEMORY FOR DE4 SOLVER:
 MXBW MUST BE AT LEAST  108
 
 SOLVING FOR HEAD 

 NO OUTPUT CONTROL FOR STRESS PERIOD    1   TIME STEP   26
 SOLVING FOR ZETA FOR LAYER     1 ZONE     2

    4992 UPPER PART EQS.      4993 LOWER PART EQS.    BAND WIDTH + 1 =  101
 STRESS PERIOD=  1 TIMESTEP= 26 LAYER=  1 ZONE=  2 ACTIVE CELLS= 9985 NUMBER OF EQUATIONS=    9985
 
 SOLVING FOR HEAD 

 NO OUTPUT CONTROL FOR STRESS PERIOD    1   TIME STEP   27
 SOLVING FOR ZETA FOR LAYER     1 ZONE     2

    4873 UPPER PART EQS.      4871 LOWER PART EQS.    BAND WIDTH + 1 =  108
 INSUFFICIENT MEMORY FOR DE4 SOLVER:
 MXBW MUST BE AT LEAST  108
 
 SOLVING FOR HEAD 

 NO OUTPUT CONTROL FOR STRESS PERIOD    1   TIME STEP   28
 SOLVING FOR ZETA FOR LAYER     1 ZONE     2

    4992 UPPER PART EQS.      4993 LOWER PART EQS.    BAND WIDTH + 1 =  101
 STRESS PERIOD=  1 TIMESTEP= 28 LAYER=  1 ZONE=  2 ACTIVE CELLS= 9985 NUMBER OF EQUATIONS=    9985
 
 SOLVING FOR HEAD 

 NO OUTPUT CONTROL FOR STRESS PERIOD    1   TIME STEP   29
 SOLVING FOR ZETA FOR LAYER     1 ZONE     2

    4870 UPPER PART EQS.      4868 LOWER PART EQS.    BAND WIDTH + 1 =  108
 INSUFFICIENT MEMORY FOR DE4 SOLVER:
 MXBW MUST BE AT LEAST  108
 
 SOLVING FOR HEAD 

 NO OUTPUT CONTROL FOR STRESS PERIOD    1   TIME STEP   30
 SOLVING FOR ZETA FOR LAYER     1 ZONE     2

    4992 UPPER PART EQS.      4993 LOWER PART EQS.    BAND WIDTH + 1 =  101
 STRESS PERIOD=  1 TIMESTEP= 30 LAYER=  1 ZONE=  2 ACTIVE CELLS= 9985 NUMBER OF EQUATIONS=    9985
 
 SOLVING FOR HEAD 

 NO OUTPUT CONTROL FOR STRESS PERIOD    1   TIME STEP   31
 SOLVING FOR ZETA FOR LAYER     1 ZONE     2

    4865 UPPER PART EQS.      4866 LOWER PART EQS.    BAND WIDTH + 1 =  106
 INSUFFICIENT MEMORY FOR DE4 SOLVER:
 MXBW MUST BE AT LEAST  106
 
 SOLVING FOR HEAD 

 NO OUTPUT CONTROL FOR STRESS PERIOD    1   TIME STEP   32
 SOLVING FOR ZETA FOR LAYER     1 ZONE     2

    4992 UPPER PART EQS.      4993 LOWER PART EQS.    BAND WIDTH + 1 =  101
 STRESS PERIOD=  1 TIMESTEP= 32 LAYER=  1 ZONE=  2 ACTIVE CELLS= 9985 NUMBER OF EQUATIONS=    9985
 
 SOLVING FOR HEAD 

 NO OUTPUT CONTROL FOR STRESS PERIOD    1   TIME STEP   33
 SOLVING FOR ZETA FOR LAYER     1 ZONE     2

    4862 UPPER PART EQS.      4862 LOWER PART EQS.    BAND WIDTH + 1 =  106
 INSUFFICIENT MEMORY FOR DE4 SOLVER:
 MXBW MUST BE AT LEAST  106
 
 SOLVING FOR HEAD 

 NO OUTPUT CONTROL FOR STRESS PERIOD    1   TIME STEP   34
 SOLVING FOR ZETA FOR LAYER     1 ZONE     2

    4992 UPPER PART EQS.      4994 LOWER PART EQS.    BAND WIDTH + 1 =  101
 STRESS PERIOD=  1 TIMESTEP= 34 LAYER=  1 ZONE=  2 ACTIVE CELLS= 9986 NUMBER OF EQUATIONS=    9986
 
 SOLVING FOR HEAD 

 NO OUTPUT CONTROL FOR STRESS PERIOD    1   TIME STEP   35
 SOLVING FOR ZETA FOR LAYER     1 ZONE     2

    4862 UPPER PART EQS.      4860 LOWER PART EQS.    BAND WIDTH + 1 =  105
 STRESS PERIOD=  1 TIMESTEP= 35 LAYER=  1 ZONE=  2 ACTIVE CELLS= 9722 NUMBER OF EQUATIONS=    9722
 
 SOLVING FOR HEAD 

 NO OUTPUT CONTROL FOR STRESS PERIOD    1   TIME STEP   36
 SOLVING FOR ZETA FOR LAYER     1 ZONE     2

    4986 UPPER PART EQS.      4990 LOWER PART EQS.    BAND WIDTH + 1 =  101
 STRESS PERIOD=  1 TIMESTEP= 36 LAYER=  1 ZONE=  2 ACTIVE CELLS= 9976 NUMBER OF EQUATIONS=    9976
 
 SOLVING FOR HEAD 

 NO OUTPUT CONTROL FOR STRESS PERIOD    1   TIME STEP   37
 SOLVING FOR ZETA FOR LAYER     1 ZONE     2

    4866 UPPER PART EQS.      4865 LOWER PART EQS.    BAND WIDTH + 1 =  104
 STRESS PERIOD=  1 TIMESTEP= 37 LAYER=  1 ZONE=  2 ACTIVE CELLS= 9731 NUMBER OF EQUATIONS=    9731
 
 SOLVING FOR HEAD 

 NO OUTPUT CONTROL FOR STRESS PERIOD    1   TIME STEP   38
 SOLVING FOR ZETA FOR LAYER     1 ZONE     2

    4967 UPPER PART EQS.      4965 LOWER PART EQS.    BAND WIDTH + 1 =  101
 STRESS PERIOD=  1 TIMESTEP= 38 LAYER=  1 ZONE=  2 ACTIVE CELLS= 9932 NUMBER OF EQUATIONS=    9932
 
 SOLVING FOR HEAD 

 NO OUTPUT CONTROL FOR STRESS PERIOD    1   TIME STEP   39
 SOLVING FOR ZETA FOR LAYER     1 ZONE     2

    4871 UPPER PART EQS.      4870 LOWER PART EQS.    BAND WIDTH + 1 =  105
 STRESS PERIOD=  1 TIMESTEP= 39 LAYER=  1 ZONE=  2 ACTIVE CELLS= 9741 NUMBER OF EQUATIONS=    9741
 
 SOLVING FOR HEAD 

 NO OUTPUT CONTROL FOR STRESS PERIOD    1   TIME STEP   40
 SOLVING FOR ZETA FOR LAYER     1 ZONE     2

    4945 UPPER PART EQS.      4940 LOWER PART EQS.    BAND WIDTH + 1 =  102
 STRESS PERIOD=  1 TIMESTEP= 40 LAYER=  1 ZONE=  2 ACTIVE CELLS= 9885 NUMBER OF EQUATIONS=    9885
 
 SOLVING FOR HEAD 

 NO OUTPUT CONTROL FOR STRESS PERIOD    1   TIME STEP   41
 SOLVING FOR ZETA FOR LAYER     1 ZONE     2

    4864 UPPER PART EQS.      4868 LOWER PART EQS.    BAND WIDTH + 1 =  103
 STRESS PERIOD=  1 TIMESTEP= 41 LAYER=  1 ZONE=  2 ACTIVE CELLS= 9732 NUMBER OF EQUATIONS=    9732
 
 SOLVING FOR HEAD 

 NO OUTPUT CONTROL FOR STRESS PERIOD    1   TIME STEP   42
 SOLVING FOR ZETA FOR LAYER     1 ZONE     2

    4927 UPPER PART EQS.      4931 LOWER PART EQS.    BAND WIDTH + 1 =  103
 STRESS PERIOD=  1 TIMESTEP= 42 LAYER=  1 ZONE=  2 ACTIVE CELLS= 9858 NUMBER OF EQUATIONS=    9858
 
 SOLVING FOR HEAD 

 NO OUTPUT CONTROL FOR STRESS PERIOD    1   TIME STEP   43
 SOLVING FOR ZETA FOR LAYER     1 ZONE     2

    4864 UPPER PART EQS.      4849 LOWER PART EQS.    BAND WIDTH + 1 =  106
 INSUFFICIENT MEMORY FOR DE4 SOLVER:
 MXBW MUST BE AT LEAST  106
 
 SOLVING FOR HEAD 

 NO OUTPUT CONTROL FOR STRESS PERIOD    1   TIME STEP   44
 SOLVING FOR ZETA FOR LAYER     1 ZONE     2

    4996 UPPER PART EQS.      4995 LOWER PART EQS.    BAND WIDTH + 1 =  101
 STRESS PERIOD=  1 TIMESTEP= 44 LAYER=  1 ZONE=  2 ACTIVE CELLS= 9991 NUMBER OF EQUATIONS=    9991
 
 SOLVING FOR HEAD 

 NO OUTPUT CONTROL FOR STRESS PERIOD    1   TIME STEP   45
 SOLVING FOR ZETA FOR LAYER     1 ZONE     2

    4794 UPPER PART EQS.      4785 LOWER PART EQS.    BAND WIDTH + 1 =  104
 STRESS PERIOD=  1 TIMESTEP= 45 LAYER=  1 ZONE=  2 ACTIVE CELLS= 9579 NUMBER OF EQUATIONS=    9579
 
 SOLVING FOR HEAD 

 NO OUTPUT CONTROL FOR STRESS PERIOD    1   TIME STEP   46
 SOLVING FOR ZETA FOR LAYER     1 ZONE     2

    4959 UPPER PART EQS.      4972 LOWER PART EQS.    BAND WIDTH + 1 =  104
 STRESS PERIOD=  1 TIMESTEP= 46 LAYER=  1 ZONE=  2 ACTIVE CELLS= 9931 NUMBER OF EQUATIONS=    9931
 
 SOLVING FOR HEAD 

 NO OUTPUT CONTROL FOR STRESS PERIOD    1   TIME STEP   47
 SOLVING FOR ZETA FOR LAYER     1 ZONE     2

    4807 UPPER PART EQS.      4804 LOWER PART EQS.    BAND WIDTH + 1 =   99
 STRESS PERIOD=  1 TIMESTEP= 47 LAYER=  1 ZONE=  2 ACTIVE CELLS= 9611 NUMBER OF EQUATIONS=    9611
 
 SOLVING FOR HEAD 

 NO OUTPUT CONTROL FOR STRESS PERIOD    1   TIME STEP   48
 SOLVING FOR ZETA FOR LAYER     1 ZONE     2

    4934 UPPER PART EQS.      4943 LOWER PART EQS.    BAND WIDTH + 1 =  101
 STRESS PERIOD=  1 TIMESTEP= 48 LAYER=  1 ZONE=  2 ACTIVE CELLS= 9877 NUMBER OF EQUATIONS=    9877
 
 SOLVING FOR HEAD 

 NO OUTPUT CONTROL FOR STRESS PERIOD    1   TIME STEP   49
 SOLVING FOR ZETA FOR LAYER     1 ZONE     2

    4813 UPPER PART EQS.      4826 LOWER PART EQS.    BAND WIDTH + 1 =   99
 STRESS PERIOD=  1 TIMESTEP= 49 LAYER=  1 ZONE=  2 ACTIVE CELLS= 9639 NUMBER OF EQUATIONS=    9639
 
 SOLVING FOR HEAD 

 NO OUTPUT CONTROL FOR STRESS PERIOD    1   TIME STEP   50
 SOLVING FOR ZETA FOR LAYER     1 ZONE     2

    4910 UPPER PART EQS.      4913 LOWER PART EQS.    BAND WIDTH + 1 =  102
 STRESS PERIOD=  1 TIMESTEP= 50 LAYER=  1 ZONE=  2 ACTIVE CELLS= 9823 NUMBER OF EQUATIONS=    9823
 
 SOLVING FOR HEAD 

 NO OUTPUT CONTROL FOR STRESS PERIOD    1   TIME STEP   51
 SOLVING FOR ZETA FOR LAYER     1 ZONE     2

    4831 UPPER PART EQS.      4834 LOWER PART EQS.    BAND WIDTH + 1 =   98
 STRESS PERIOD=  1 TIMESTEP= 51 LAYER=  1 ZONE=  2 ACTIVE CELLS= 9665 NUMBER OF EQUATIONS=    9665
 
 SOLVING FOR HEAD 

 NO OUTPUT CONTROL FOR STRESS PERIOD    1   TIME STEP   52
 SOLVING FOR ZETA FOR LAYER     1 ZONE     2

    4895 UPPER PART EQS.      4888 LOWER PART EQS.    BAND WIDTH + 1 =  102
 STRESS PERIOD=  1 TIMESTEP= 52 LAYER=  1 ZONE=  2 ACTIVE CELLS= 9783 NUMBER OF EQUATIONS=    9783
 
 SOLVING FOR HEAD 

 NO OUTPUT CONTROL FOR STRESS PERIOD    1   TIME STEP   53
 SOLVING FOR ZETA FOR LAYER     1 ZONE     2

    4839 UPPER PART EQS.      4842 LOWER PART EQS.    BAND WIDTH + 1 =  100
 STRESS PERIOD=  1 TIMESTEP= 53 LAYER=  1 ZONE=  2 ACTIVE CELLS= 9681 NUMBER OF EQUATIONS=    9681
 
 SOLVING FOR HEAD 

 NO OUTPUT CONTROL FOR STRESS PERIOD    1   TIME STEP   54
 SOLVING FOR ZETA FOR LAYER     1 ZONE     2

    4883 UPPER PART EQS.      4873 LOWER PART EQS.    BAND WIDTH + 1 =  103
 STRESS PERIOD=  1 TIMESTEP= 54 LAYER=  1 ZONE=  2 ACTIVE CELLS= 9756 NUMBER OF EQUATIONS=    9756
 
 SOLVING FOR HEAD 

 NO OUTPUT CONTROL FOR STRESS PERIOD    1   TIME STEP   55
 SOLVING FOR ZETA FOR LAYER     1 ZONE     2

    4844 UPPER PART EQS.      4847 LOWER PART EQS.    BAND WIDTH + 1 =  102
 STRESS PERIOD=  1 TIMESTEP= 55 LAYER=  1 ZONE=  2 ACTIVE CELLS= 9691 NUMBER OF EQUATIONS=    9691
 
 SOLVING FOR HEAD 

 NO OUTPUT CONTROL FOR STRESS PERIOD    1   TIME STEP   56
 SOLVING FOR ZETA FOR LAYER     1 ZONE     2

    4872 UPPER PART EQS.      4855 LOWER PART EQS.    BAND WIDTH + 1 =  101
 STRESS PERIOD=  1 TIMESTEP= 56 LAYER=  1 ZONE=  2 ACTIVE CELLS= 9727 NUMBER OF EQUATIONS=    9727
 
 SOLVING FOR HEAD 

 NO OUTPUT CONTROL FOR STRESS PERIOD    1   TIME STEP   57
 SOLVING FOR ZETA FOR LAYER     1 ZONE     2

    4846 UPPER PART EQS.      4853 LOWER PART EQS.    BAND WIDTH + 1 =  102
 STRESS PERIOD=  1 TIMESTEP= 57 LAYER=  1 ZONE=  2 ACTIVE CELLS= 9699 NUMBER OF EQUATIONS=    9699
 
 SOLVING FOR HEAD 

 NO OUTPUT CONTROL FOR STRESS PERIOD    1   TIME STEP   58
 SOLVING FOR ZETA FOR LAYER     1 ZONE     2

    4857 UPPER PART EQS.      4862 LOWER PART EQS.    BAND WIDTH + 1 =   99
 STRESS PERIOD=  1 TIMESTEP= 58 LAYER=  1 ZONE=  2 ACTIVE CELLS= 9719 NUMBER OF EQUATIONS=    9719
 
 SOLVING FOR HEAD 

 NO OUTPUT CONTROL FOR STRESS PERIOD    1   TIME STEP   59
 SOLVING FOR ZETA FOR LAYER     1 ZONE     2

    4849 UPPER PART EQS.      4848 LOWER PART EQS.    BAND WIDTH + 1 =  104
 STRESS PERIOD=  1 TIMESTEP= 59 LAYER=  1 ZONE=  2 ACTIVE CELLS= 9697 NUMBER OF EQUATIONS=    9697
 
 SOLVING FOR HEAD 

 NO OUTPUT CONTROL FOR STRESS PERIOD    1   TIME STEP   60
 SOLVING FOR ZETA FOR LAYER     1 ZONE     2

    4856 UPPER PART EQS.      4843 LOWER PART EQS.    BAND WIDTH + 1 =   99
 STRESS PERIOD=  1 TIMESTEP= 60 LAYER=  1 ZONE=  2 ACTIVE CELLS= 9699 NUMBER OF EQUATIONS=    9699
 
 SOLVING FOR HEAD 

 NO OUTPUT CONTROL FOR STRESS PERIOD    1   TIME STEP   61
 SOLVING FOR ZETA FOR LAYER     1 ZONE     2

    4842 UPPER PART EQS.      4861 LOWER PART EQS.    BAND WIDTH + 1 =   99
 STRESS PERIOD=  1 TIMESTEP= 61 LAYER=  1 ZONE=  2 ACTIVE CELLS= 9703 NUMBER OF EQUATIONS=    9703
 
 SOLVING FOR HEAD 

 NO OUTPUT CONTROL FOR STRESS PERIOD    1   TIME STEP   62
 SOLVING FOR ZETA FOR LAYER     1 ZONE     2

    4844 UPPER PART EQS.      4834 LOWER PART EQS.    BAND WIDTH + 1 =  101
 STRESS PERIOD=  1 TIMESTEP= 62 LAYER=  1 ZONE=  2 ACTIVE CELLS= 9678 NUMBER OF EQUATIONS=    9678
 
 SOLVING FOR HEAD 

 NO OUTPUT CONTROL FOR STRESS PERIOD    1   TIME STEP   63
 SOLVING FOR ZETA FOR LAYER     1 ZONE     2

    4851 UPPER PART EQS.      4855 LOWER PART EQS.    BAND WIDTH + 1 =  109
 INSUFFICIENT MEMORY FOR DE4 SOLVER:
 MXBW MUST BE AT LEAST  109
 
 SOLVING FOR HEAD 

 NO OUTPUT CONTROL FOR STRESS PERIOD    1   TIME STEP   64
 SOLVING FOR ZETA FOR LAYER     1 ZONE     2

    4998 UPPER PART EQS.      4998 LOWER PART EQS.    BAND WIDTH + 1 =  101
 STRESS PERIOD=  1 TIMESTEP= 64 LAYER=  1 ZONE=  2 ACTIVE CELLS= 9996 NUMBER OF EQUATIONS=    9996
 
 SOLVING FOR HEAD 

 NO OUTPUT CONTROL FOR STRESS PERIOD    1   TIME STEP   65
 SOLVING FOR ZETA FOR LAYER     1 ZONE     2

    4702 UPPER PART EQS.      4701 LOWER PART EQS.    BAND WIDTH + 1 =   97
 STRESS PERIOD=  1 TIMESTEP= 65 LAYER=  1 ZONE=  2 ACTIVE CELLS= 9403 NUMBER OF EQUATIONS=    9403
 
 SOLVING FOR HEAD 

 NO OUTPUT CONTROL FOR STRESS PERIOD    1   TIME STEP   66
 SOLVING FOR ZETA FOR LAYER     1 ZONE     2

    4958 UPPER PART EQS.      4960 LOWER PART EQS.    BAND WIDTH + 1 =  102
 STRESS PERIOD=  1 TIMESTEP= 66 LAYER=  1 ZONE=  2 ACTIVE CELLS= 9918 NUMBER OF EQUATIONS=    9918
 
 SOLVING FOR HEAD 

 NO OUTPUT CONTROL FOR STRESS PERIOD    1   TIME STEP   67
 SOLVING FOR ZETA FOR LAYER     1 ZONE     2

    4734 UPPER PART EQS.      4732 LOWER PART EQS.    BAND WIDTH + 1 =   99
 STRESS PERIOD=  1 TIMESTEP= 67 LAYER=  1 ZONE=  2 ACTIVE CELLS= 9466 NUMBER OF EQUATIONS=    9466
 
 SOLVING FOR HEAD 

 NO OUTPUT CONTROL FOR STRESS PERIOD    1   TIME STEP   68
 SOLVING FOR ZETA FOR LAYER     1 ZONE     2

    4947 UPPER PART EQS.      4938 LOWER PART EQS.    BAND WIDTH + 1 =  101
 STRESS PERIOD=  1 TIMESTEP= 68 LAYER=  1 ZONE=  2 ACTIVE CELLS= 9885 NUMBER OF EQUATIONS=    9885
 
 SOLVING FOR HEAD 

 NO OUTPUT CONTROL FOR STRESS PERIOD    1   TIME STEP   69
 SOLVING FOR ZETA FOR LAYER     1 ZONE     2

    4747 UPPER PART EQS.      4755 LOWER PART EQS.    BAND WIDTH + 1 =   98
 STRESS PERIOD=  1 TIMESTEP= 69 LAYER=  1 ZONE=  2 ACTIVE CELLS= 9502 NUMBER OF EQUATIONS=    9502
 
 SOLVING FOR HEAD 

 NO OUTPUT CONTROL FOR STRESS PERIOD    1   TIME STEP   70
 SOLVING FOR ZETA FOR LAYER     1 ZONE     2

    4924 UPPER PART EQS.      4924 LOWER PART EQS.    BAND WIDTH + 1 =  103
 STRESS PERIOD=  1 TIMESTEP= 70 LAYER=  1 ZONE=  2 ACTIVE CELLS= 9848 NUMBER OF EQUATIONS=    9848
 
 SOLVING FOR HEAD 

 NO OUTPUT CONTROL FOR STRESS PERIOD    1   TIME STEP   71
 SOLVING FOR ZETA FOR LAYER     1 ZONE     2

    4761 UPPER PART EQS.      4759 LOWER PART EQS.    BAND WIDTH + 1 =  101
 STRESS PERIOD=  1 TIMESTEP= 71 LAYER=  1 ZONE=  2 ACTIVE CELLS= 9520 NUMBER OF EQUATIONS=    9520
 
 SOLVING FOR HEAD 

 NO OUTPUT CONTROL FOR STRESS PERIOD    1   TIME STEP   72
 SOLVING FOR ZETA FOR LAYER     1 ZONE     2

    4907 UPPER PART EQS.      4923 LOWER PART EQS.    BAND WIDTH + 1 =  102
 STRESS PERIOD=  1 TIMESTEP= 72 LAYER=  1 ZONE=  2 ACTIVE CELLS= 9830 NUMBER OF EQUATIONS=    9830
 
 SOLVING FOR HEAD 

 NO OUTPUT CONTROL FOR STRESS PERIOD    1   TIME STEP   73
 SOLVING FOR ZETA FOR LAYER     1 ZONE     2

    4758 UPPER PART EQS.      4758 LOWER PART EQS.    BAND WIDTH + 1 =  106
 INSUFFICIENT MEMORY FOR DE4 SOLVER:
 MXBW MUST BE AT LEAST  106
 
 SOLVING FOR HEAD 

 NO OUTPUT CONTROL FOR STRESS PERIOD    1   TIME STEP   74
 SOLVING FOR ZETA FOR LAYER     1 ZONE     2

    4998 UPPER PART EQS.      4998 LOWER PART EQS.    BAND WIDTH + 1 =  101
 STRESS PERIOD=  1 TIMESTEP= 74 LAYER=  1 ZONE=  2 ACTIVE CELLS= 9996 NUMBER OF EQUATIONS=    9996
 
 SOLVING FOR HEAD 

 NO OUTPUT CONTROL FOR STRESS PERIOD    1   TIME STEP   75
 SOLVING FOR ZETA FOR LAYER     1 ZONE     2

    4667 UPPER PART EQS.      4674 LOWER PART EQS.    BAND WIDTH + 1 =   97
 STRESS PERIOD=  1 TIMESTEP= 75 LAYER=  1 ZONE=  2 ACTIVE CELLS= 9341 NUMBER OF EQUATIONS=    9341
 
 SOLVING FOR HEAD 

 NO OUTPUT CONTROL FOR STRESS PERIOD    1   TIME STEP   76
 SOLVING FOR ZETA FOR LAYER     1 ZONE     2

    4976 UPPER PART EQS.      4964 LOWER PART EQS.    BAND WIDTH + 1 =  107
 INSUFFICIENT MEMORY FOR DE4 SOLVER:
 MXBW MUST BE AT LEAST  107
 
 SOLVING FOR HEAD 

 NO OUTPUT CONTROL FOR STRESS PERIOD    1   TIME STEP   77
 SOLVING FOR ZETA FOR LAYER     1 ZONE     2

    4998 UPPER PART EQS.      4998 LOWER PART EQS.    BAND WIDTH + 1 =  101
 STRESS PERIOD=  1 TIMESTEP= 77 LAYER=  1 ZONE=  2 ACTIVE CELLS= 9996 NUMBER OF EQUATIONS=    9996
 
 SOLVING FOR HEAD 

 NO OUTPUT CONTROL FOR STRESS PERIOD    1   TIME STEP   78
 SOLVING FOR ZETA FOR LAYER     1 ZONE     2

    4665 UPPER PART EQS.      4661 LOWER PART EQS.    BAND WIDTH + 1 =  103
 STRESS PERIOD=  1 TIMESTEP= 78 LAYER=  1 ZONE=  2 ACTIVE CELLS= 9326 NUMBER OF EQUATIONS=    9326
 
 SOLVING FOR HEAD 

 NO OUTPUT CONTROL FOR STRESS PERIOD    1   TIME STEP   79
 SOLVING FOR ZETA FOR LAYER     1 ZONE     2

    4975 UPPER PART EQS.      4966 LOWER PART EQS.    BAND WIDTH + 1 =  106
 INSUFFICIENT MEMORY FOR DE4 SOLVER:
 MXBW MUST BE AT LEAST  106
 
 SOLVING FOR HEAD 

 NO OUTPUT CONTROL FOR STRESS PERIOD    1   TIME STEP   80
 SOLVING FOR ZETA FOR LAYER     1 ZONE     2

    4998 UPPER PART EQS.      4998 LOWER PART EQS.    BAND WIDTH + 1 =  101
 STRESS PERIOD=  1 TIMESTEP= 80 LAYER=  1 ZONE=  2 ACTIVE CELLS= 9996 NUMBER OF EQUATIONS=    9996
 
 SOLVING FOR HEAD 

 NO OUTPUT CONTROL FOR STRESS PERIOD    1   TIME STEP   81
 SOLVING FOR ZETA FOR LAYER     1 ZONE     2

    4655 UPPER PART EQS.      4643 LOWER PART EQS.    BAND WIDTH + 1 =  108
 INSUFFICIENT MEMORY FOR DE4 SOLVER:
 MXBW MUST BE AT LEAST  108
 
 SOLVING FOR HEAD 

 NO OUTPUT CONTROL FOR STRESS PERIOD    1   TIME STEP   82
 SOLVING FOR ZETA FOR LAYER     1 ZONE     2

    4998 UPPER PART EQS.      4998 LOWER PART EQS.    BAND WIDTH + 1 =  101
 STRESS PERIOD=  1 TIMESTEP= 82 LAYER=  1 ZONE=  2 ACTIVE CELLS= 9996 NUMBER OF EQUATIONS=    9996
 
 SOLVING FOR HEAD 

 NO OUTPUT CONTROL FOR STRESS PERIOD    1   TIME STEP   83
 SOLVING FOR ZETA FOR LAYER     1 ZONE     2

    4651 UPPER PART EQS.      4640 LOWER PART EQS.    BAND WIDTH + 1 =  107
 INSUFFICIENT MEMORY FOR DE4 SOLVER:
 MXBW MUST BE AT LEAST  107
 
 SOLVING FOR HEAD 

 NO OUTPUT CONTROL FOR STRESS PERIOD    1   TIME STEP   84
 SOLVING FOR ZETA FOR LAYER     1 ZONE     2

    4998 UPPER PART EQS.      4998 LOWER PART EQS.    BAND WIDTH + 1 =  101
 STRESS PERIOD=  1 TIMESTEP= 84 LAYER=  1 ZONE=  2 ACTIVE CELLS= 9996 NUMBER OF EQUATIONS=    9996
 
 SOLVING FOR HEAD 

 NO OUTPUT CONTROL FOR STRESS PERIOD    1   TIME STEP   85
 SOLVING FOR ZETA FOR LAYER     1 ZONE     2

    4649 UPPER PART EQS.      4640 LOWER PART EQS.    BAND WIDTH + 1 =  104
 STRESS PERIOD=  1 TIMESTEP= 85 LAYER=  1 ZONE=  2 ACTIVE CELLS= 9289 NUMBER OF EQUATIONS=    9289
 
 SOLVING FOR HEAD 

 NO OUTPUT CONTROL FOR STRESS PERIOD    1   TIME STEP   86
 SOLVING FOR ZETA FOR LAYER     1 ZONE     2

    4981 UPPER PART EQS.      4975 LOWER PART EQS.    BAND WIDTH + 1 =  103
 STRESS PERIOD=  1 TIMESTEP= 86 LAYER=  1 ZONE=  2 ACTIVE CELLS= 9956 NUMBER OF EQUATIONS=    9956
 
 SOLVING FOR HEAD 

 NO OUTPUT CONTROL FOR STRESS PERIOD    1   TIME STEP   87
 SOLVING FOR ZETA FOR LAYER     1 ZONE     2

    4680 UPPER PART EQS.      4660 LOWER PART EQS.    BAND WIDTH + 1 =  113
 INSUFFICIENT MEMORY FOR DE4 SOLVER:
 MXBW MUST BE AT LEAST  113
 
 SOLVING FOR HEAD 

 NO OUTPUT CONTROL FOR STRESS PERIOD    1   TIME STEP   88
 SOLVING FOR ZETA FOR LAYER     1 ZONE     2

    4998 UPPER PART EQS.      4998 LOWER PART EQS.    BAND WIDTH + 1 =  101
 STRESS PERIOD=  1 TIMESTEP= 88 LAYER=  1 ZONE=  2 ACTIVE CELLS= 9996 NUMBER OF EQUATIONS=    9996
 
 SOLVING FOR HEAD 

 NO OUTPUT CONTROL FOR STRESS PERIOD    1   TIME STEP   89
 SOLVING FOR ZETA FOR LAYER     1 ZONE     2

    4651 UPPER PART EQS.      4635 LOWER PART EQS.    BAND WIDTH + 1 =  108
 INSUFFICIENT MEMORY FOR DE4 SOLVER:
 MXBW MUST BE AT LEAST  108
 
 SOLVING FOR HEAD 

 NO OUTPUT CONTROL FOR STRESS PERIOD    1   TIME STEP   90
 SOLVING FOR ZETA FOR LAYER     1 ZONE     2

    4998 UPPER PART EQS.      4998 LOWER PART EQS.    BAND WIDTH + 1 =  101
 STRESS PERIOD=  1 TIMESTEP= 90 LAYER=  1 ZONE=  2 ACTIVE CELLS= 9996 NUMBER OF EQUATIONS=    9996
 
 SOLVING FOR HEAD 

 NO OUTPUT CONTROL FOR STRESS PERIOD    1   TIME STEP   91
 SOLVING FOR ZETA FOR LAYER     1 ZONE     2

    4642 UPPER PART EQS.      4630 LOWER PART EQS.    BAND WIDTH + 1 =  102
 STRESS PERIOD=  1 TIMESTEP= 91 LAYER=  1 ZONE=  2 ACTIVE CELLS= 9272 NUMBER OF EQUATIONS=    9272
 
 SOLVING FOR HEAD 

 NO OUTPUT CONTROL FOR STRESS PERIOD    1   TIME STEP   92
 SOLVING FOR ZETA FOR LAYER     1 ZONE     2

    4976 UPPER PART EQS.      4978 LOWER PART EQS.    BAND WIDTH + 1 =  104
 STRESS PERIOD=  1 TIMESTEP= 92 LAYER=  1 ZONE=  2 ACTIVE CELLS= 9954 NUMBER OF EQUATIONS=    9954
 
 SOLVING FOR HEAD 

 NO OUTPUT CONTROL FOR STRESS PERIOD    1   TIME STEP   93
 SOLVING FOR ZETA FOR LAYER     1 ZONE     2

    4667 UPPER PART EQS.      4655 LOWER PART EQS.    BAND WIDTH + 1 =  104
 STRESS PERIOD=  1 TIMESTEP= 93 LAYER=  1 ZONE=  2 ACTIVE CELLS= 9322 NUMBER OF EQUATIONS=    9322
 
 SOLVING FOR HEAD 

 NO OUTPUT CONTROL FOR STRESS PERIOD    1   TIME STEP   94
 SOLVING FOR ZETA FOR LAYER     1 ZONE     2

    4955 UPPER PART EQS.      4967 LOWER PART EQS.    BAND WIDTH + 1 =  105
 STRESS PERIOD=  1 TIMESTEP= 94 LAYER=  1 ZONE=  2 ACTIVE CELLS= 9922 NUMBER OF EQUATIONS=    9922
 
 SOLVING FOR HEAD 

 NO OUTPUT CONTROL FOR STRESS PERIOD    1   TIME STEP   95
 SOLVING FOR ZETA FOR LAYER     1 ZONE     2

    4679 UPPER PART EQS.      4665 LOWER PART EQS.    BAND WIDTH + 1 =  109
 INSUFFICIENT MEMORY FOR DE4 SOLVER:
 MXBW MUST BE AT LEAST  109
 
 SOLVING FOR HEAD 

 NO OUTPUT CONTROL FOR STRESS PERIOD    1   TIME STEP   96
 SOLVING FOR ZETA FOR LAYER     1 ZONE     2

    4998 UPPER PART EQS.      4998 LOWER PART EQS.    BAND WIDTH + 1 =  101
 STRESS PERIOD=  1 TIMESTEP= 96 LAYER=  1 ZONE=  2 ACTIVE CELLS= 9996 NUMBER OF EQUATIONS=    9996
 
 SOLVING FOR HEAD 

 NO OUTPUT CONTROL FOR STRESS PERIOD    1   TIME STEP   97
 SOLVING FOR ZETA FOR LAYER     1 ZONE     2

    4630 UPPER PART EQS.      4620 LOWER PART EQS.    BAND WIDTH + 1 =  105
 STRESS PERIOD=  1 TIMESTEP= 97 LAYER=  1 ZONE=  2 ACTIVE CELLS= 9250 NUMBER OF EQUATIONS=    9250
 
 SOLVING FOR HEAD 

 NO OUTPUT CONTROL FOR STRESS PERIOD    1   TIME STEP   98
 SOLVING FOR ZETA FOR LAYER     1 ZONE     2

    4975 UPPER PART EQS.      4979 LOWER PART EQS.    BAND WIDTH + 1 =  101
 STRESS PERIOD=  1 TIMESTEP= 98 LAYER=  1 ZONE=  2 ACTIVE CELLS= 9954 NUMBER OF EQUATIONS=    9954
 
 SOLVING FOR HEAD 

 NO OUTPUT CONTROL FOR STRESS PERIOD    1   TIME STEP   99
 SOLVING FOR ZETA FOR LAYER     1 ZONE     2

    4646 UPPER PART EQS.      4650 LOWER PART EQS.    BAND WIDTH + 1 =   99
 STRESS PERIOD=  1 TIMESTEP= 99 LAYER=  1 ZONE=  2 ACTIVE CELLS= 9296 NUMBER OF EQUATIONS=    9296
 
 SOLVING FOR HEAD 

 NO OUTPUT CONTROL FOR STRESS PERIOD    1   TIME STEP  100
 SOLVING FOR ZETA FOR LAYER     1 ZONE     2

    4966 UPPER PART EQS.      4957 LOWER PART EQS.    BAND WIDTH + 1 =  104
 STRESS PERIOD=  1 TIMESTEP=100 LAYER=  1 ZONE=  2 ACTIVE CELLS= 9923 NUMBER OF EQUATIONS=    9923
 
 SOLVING FOR HEAD 

 NO OUTPUT CONTROL FOR STRESS PERIOD    1   TIME STEP  101
 SOLVING FOR ZETA FOR LAYER     1 ZONE     2

    4665 UPPER PART EQS.      4653 LOWER PART EQS.    BAND WIDTH + 1 =  106
 INSUFFICIENT MEMORY FOR DE4 SOLVER:
 MXBW MUST BE AT LEAST  106
 
 SOLVING FOR HEAD 

 NO OUTPUT CONTROL FOR STRESS PERIOD    1   TIME STEP  102
 SOLVING FOR ZETA FOR LAYER     1 ZONE     2

    4998 UPPER PART EQS.      4998 LOWER PART EQS.    BAND WIDTH + 1 =  101
 STRESS PERIOD=  1 TIMESTEP=102 LAYER=  1 ZONE=  2 ACTIVE CELLS= 9996 NUMBER OF EQUATIONS=    9996
 
 SOLVING FOR HEAD 

 NO OUTPUT CONTROL FOR STRESS PERIOD    1   TIME STEP  103
 SOLVING FOR ZETA FOR LAYER     1 ZONE     2

    4614 UPPER PART EQS.      4607 LOWER PART EQS.    BAND WIDTH + 1 =   99
 STRESS PERIOD=  1 TIMESTEP=103 LAYER=  1 ZONE=  2 ACTIVE CELLS= 9221 NUMBER OF EQUATIONS=    9221
 
 SOLVING FOR HEAD 

 NO OUTPUT CONTROL FOR STRESS PERIOD    1   TIME STEP  104
 SOLVING FOR ZETA FOR LAYER     1 ZONE     2

    4973 UPPER PART EQS.      4980 LOWER PART EQS.    BAND WIDTH + 1 =  101
 STRESS PERIOD=  1 TIMESTEP=104 LAYER=  1 ZONE=  2 ACTIVE CELLS= 9953 NUMBER OF EQUATIONS=    9953
 
 SOLVING FOR HEAD 

 NO OUTPUT CONTROL FOR STRESS PERIOD    1   TIME STEP  105
 SOLVING FOR ZETA FOR LAYER     1 ZONE     2

    4635 UPPER PART EQS.      4630 LOWER PART EQS.    BAND WIDTH + 1 =   96
 STRESS PERIOD=  1 TIMESTEP=105 LAYER=  1 ZONE=  2 ACTIVE CELLS= 9265 NUMBER OF EQUATIONS=    9265
 
 SOLVING FOR HEAD 

 NO OUTPUT CONTROL FOR STRESS PERIOD    1   TIME STEP  106
 SOLVING FOR ZETA FOR LAYER     1 ZONE     2

    4962 UPPER PART EQS.      4969 LOWER PART EQS.    BAND WIDTH + 1 =  100
 STRESS PERIOD=  1 TIMESTEP=106 LAYER=  1 ZONE=  2 ACTIVE CELLS= 9931 NUMBER OF EQUATIONS=    9931
 
 SOLVING FOR HEAD 

 NO OUTPUT CONTROL FOR STRESS PERIOD    1   TIME STEP  107
 SOLVING FOR ZETA FOR LAYER     1 ZONE     2

    4646 UPPER PART EQS.      4634 LOWER PART EQS.    BAND WIDTH + 1 =  109
 INSUFFICIENT MEMORY FOR DE4 SOLVER:
 MXBW MUST BE AT LEAST  109
 
 SOLVING FOR HEAD 

 NO OUTPUT CONTROL FOR STRESS PERIOD    1   TIME STEP  108
 SOLVING FOR ZETA FOR LAYER     1 ZONE     2

    4998 UPPER PART EQS.      4998 LOWER PART EQS.    BAND WIDTH + 1 =  101
 STRESS PERIOD=  1 TIMESTEP=108 LAYER=  1 ZONE=  2 ACTIVE CELLS= 9996 NUMBER OF EQUATIONS=    9996
 
 SOLVING FOR HEAD 

 NO OUTPUT CONTROL FOR STRESS PERIOD    1   TIME STEP  109
 SOLVING FOR ZETA FOR LAYER     1 ZONE     2

    4597 UPPER PART EQS.      4595 LOWER PART EQS.    BAND WIDTH + 1 =  100
 STRESS PERIOD=  1 TIMESTEP=109 LAYER=  1 ZONE=  2 ACTIVE CELLS= 9192 NUMBER OF EQUATIONS=    9192
 
 SOLVING FOR HEAD 

 NO OUTPUT CONTROL FOR STRESS PERIOD    1   TIME STEP  110
 SOLVING FOR ZETA FOR LAYER     1 ZONE     2

    4982 UPPER PART EQS.      4976 LOWER PART EQS.    BAND WIDTH + 1 =  102
 STRESS PERIOD=  1 TIMESTEP=110 LAYER=  1 ZONE=  2 ACTIVE CELLS= 9958 NUMBER OF EQUATIONS=    9958
 
 SOLVING FOR HEAD 

 NO OUTPUT CONTROL FOR STRESS PERIOD    1   TIME STEP  111
 SOLVING FOR ZETA FOR LAYER     1 ZONE     2

    4624 UPPER PART EQS.      4615 LOWER PART EQS.    BAND WIDTH + 1 =  103
 STRESS PERIOD=  1 TIMESTEP=111 LAYER=  1 ZONE=  2 ACTIVE CELLS= 9239 NUMBER OF EQUATIONS=    9239
 
 SOLVING FOR HEAD 

 NO OUTPUT CONTROL FOR STRESS PERIOD    1   TIME STEP  112
 SOLVING FOR ZETA FOR LAYER     1 ZONE     2

    4962 UPPER PART EQS.      4970 LOWER PART EQS.    BAND WIDTH + 1 =  100
 STRESS PERIOD=  1 TIMESTEP=112 LAYER=  1 ZONE=  2 ACTIVE CELLS= 9932 NUMBER OF EQUATIONS=    9932
 
 SOLVING FOR HEAD 

 NO OUTPUT CONTROL FOR STRESS PERIOD    1   TIME STEP  113
 SOLVING FOR ZETA FOR LAYER     1 ZONE     2

    4632 UPPER PART EQS.      4625 LOWER PART EQS.    BAND WIDTH + 1 =  101
 STRESS PERIOD=  1 TIMESTEP=113 LAYER=  1 ZONE=  2 ACTIVE CELLS= 9257 NUMBER OF EQUATIONS=    9257
 
 SOLVING FOR HEAD 

 NO OUTPUT CONTROL FOR STRESS PERIOD    1   TIME STEP  114
 SOLVING FOR ZETA FOR LAYER     1 ZONE     2

    4952 UPPER PART EQS.      4955 LOWER PART EQS.    BAND WIDTH + 1 =  102
 STRESS PERIOD=  1 TIMESTEP=114 LAYER=  1 ZONE=  2 ACTIVE CELLS= 9907 NUMBER OF EQUATIONS=    9907
 
 SOLVING FOR HEAD 

 NO OUTPUT CONTROL FOR STRESS PERIOD    1   TIME STEP  115
 SOLVING FOR ZETA FOR LAYER     1 ZONE     2

    4635 UPPER PART EQS.      4625 LOWER PART EQS.    BAND WIDTH + 1 =  105
 STRESS PERIOD=  1 TIMESTEP=115 LAYER=  1 ZONE=  2 ACTIVE CELLS= 9260 NUMBER OF EQUATIONS=    9260
 
 SOLVING FOR HEAD 

 NO OUTPUT CONTROL FOR STRESS PERIOD    1   TIME STEP  116
 SOLVING FOR ZETA FOR LAYER     1 ZONE     2

    4947 UPPER PART EQS.      4958 LOWER PART EQS.    BAND WIDTH + 1 =  106
 INSUFFICIENT MEMORY FOR DE4 SOLVER:
 MXBW MUST BE AT LEAST  106
 
 SOLVING FOR HEAD 

 NO OUTPUT CONTROL FOR STRESS PERIOD    1   TIME STEP  117
 SOLVING FOR ZETA FOR LAYER     1 ZONE     2

    4998 UPPER PART EQS.      4998 LOWER PART EQS.    BAND WIDTH + 1 =  101
 STRESS PERIOD=  1 TIMESTEP=117 LAYER=  1 ZONE=  2 ACTIVE CELLS= 9996 NUMBER OF EQUATIONS=    9996
 
 SOLVING FOR HEAD 

 NO OUTPUT CONTROL FOR STRESS PERIOD    1   TIME STEP  118
 SOLVING FOR ZETA FOR LAYER     1 ZONE     2

    4582 UPPER PART EQS.      4589 LOWER PART EQS.    BAND WIDTH + 1 =   97
 STRESS PERIOD=  1 TIMESTEP=118 LAYER=  1 ZONE=  2 ACTIVE CELLS= 9171 NUMBER OF EQUATIONS=    9171
 
 SOLVING FOR HEAD 

 NO OUTPUT CONTROL FOR STRESS PERIOD    1   TIME STEP  119
 SOLVING FOR ZETA FOR LAYER     1 ZONE     2

    4977 UPPER PART EQS.      4974 LOWER PART EQS.    BAND WIDTH + 1 =  102
 STRESS PERIOD=  1 TIMESTEP=119 LAYER=  1 ZONE=  2 ACTIVE CELLS= 9951 NUMBER OF EQUATIONS=    9951
 
 SOLVING FOR HEAD 

 NO OUTPUT CONTROL FOR STRESS PERIOD    1   TIME STEP  120
 SOLVING FOR ZETA FOR LAYER     1 ZONE     2

    4608 UPPER PART EQS.      4611 LOWER PART EQS.    BAND WIDTH + 1 =   96
 STRESS PERIOD=  1 TIMESTEP=120 LAYER=  1 ZONE=  2 ACTIVE CELLS= 9219 NUMBER OF EQUATIONS=    9219
 
 SOLVING FOR HEAD 

 NO OUTPUT CONTROL FOR STRESS PERIOD    1   TIME STEP  121
 SOLVING FOR ZETA FOR LAYER     1 ZONE     2

    4963 UPPER PART EQS.      4962 LOWER PART EQS.    BAND WIDTH + 1 =  104
 STRESS PERIOD=  1 TIMESTEP=121 LAYER=  1 ZONE=  2 ACTIVE CELLS= 9925 NUMBER OF EQUATIONS=    9925
 
 SOLVING FOR HEAD 

 NO OUTPUT CONTROL FOR STRESS PERIOD    1   TIME STEP  122
 SOLVING FOR ZETA FOR LAYER     1 ZONE     2

    4622 UPPER PART EQS.      4616 LOWER PART EQS.    BAND WIDTH + 1 =  100
 STRESS PERIOD=  1 TIMESTEP=122 LAYER=  1 ZONE=  2 ACTIVE CELLS= 9238 NUMBER OF EQUATIONS=    9238
 
 SOLVING FOR HEAD 

 NO OUTPUT CONTROL FOR STRESS PERIOD    1   TIME STEP  123
 SOLVING FOR ZETA FOR LAYER     1 ZONE     2

    4939 UPPER PART EQS.      4958 LOWER PART EQS.    BAND WIDTH + 1 =  105
 STRESS PERIOD=  1 TIMESTEP=123 LAYER=  1 ZONE=  2 ACTIVE CELLS= 9897 NUMBER OF EQUATIONS=    9897
 
 SOLVING FOR HEAD 

 NO OUTPUT CONTROL FOR STRESS PERIOD    1   TIME STEP  124
 SOLVING FOR ZETA FOR LAYER     1 ZONE     2

    4627 UPPER PART EQS.      4610 LOWER PART EQS.    BAND WIDTH + 1 =  104
 STRESS PERIOD=  1 TIMESTEP=124 LAYER=  1 ZONE=  2 ACTIVE CELLS= 9237 NUMBER OF EQUATIONS=    9237
 
 SOLVING FOR HEAD 

 NO OUTPUT CONTROL FOR STRESS PERIOD    1   TIME STEP  125
 SOLVING FOR ZETA FOR LAYER     1 ZONE     2

    4944 UPPER PART EQS.      4949 LOWER PART EQS.    BAND WIDTH + 1 =  103
 STRESS PERIOD=  1 TIMESTEP=125 LAYER=  1 ZONE=  2 ACTIVE CELLS= 9893 NUMBER OF EQUATIONS=    9893
 
 SOLVING FOR HEAD 

 NO OUTPUT CONTROL FOR STRESS PERIOD    1   TIME STEP  126
 SOLVING FOR ZETA FOR LAYER     1 ZONE     2

    4618 UPPER PART EQS.      4622 LOWER PART EQS.    BAND WIDTH + 1 =   97
 STRESS PERIOD=  1 TIMESTEP=126 LAYER=  1 ZONE=  2 ACTIVE CELLS= 9240 NUMBER OF EQUATIONS=    9240
 
 SOLVING FOR HEAD 

 NO OUTPUT CONTROL FOR STRESS PERIOD    1   TIME STEP  127
 SOLVING FOR ZETA FOR LAYER     1 ZONE     2

    4933 UPPER PART EQS.      4940 LOWER PART EQS.    BAND WIDTH + 1 =  104
 STRESS PERIOD=  1 TIMESTEP=127 LAYER=  1 ZONE=  2 ACTIVE CELLS= 9873 NUMBER OF EQUATIONS=    9873
 
 SOLVING FOR HEAD 

 NO OUTPUT CONTROL FOR STRESS PERIOD    1   TIME STEP  128
 SOLVING FOR ZETA FOR LAYER     1 ZONE     2

    4626 UPPER PART EQS.      4630 LOWER PART EQS.    BAND WIDTH + 1 =   97
 STRESS PERIOD=  1 TIMESTEP=128 LAYER=  1 ZONE=  2 ACTIVE CELLS= 9256 NUMBER OF EQUATIONS=    9256
 
 SOLVING FOR HEAD 

 NO OUTPUT CONTROL FOR STRESS PERIOD    1   TIME STEP  129
 SOLVING FOR ZETA FOR LAYER     1 ZONE     2

    4918 UPPER PART EQS.      4927 LOWER PART EQS.    BAND WIDTH + 1 =  102
 STRESS PERIOD=  1 TIMESTEP=129 LAYER=  1 ZONE=  2 ACTIVE CELLS= 9845 NUMBER OF EQUATIONS=    9845
 
 SOLVING FOR HEAD 

 NO OUTPUT CONTROL FOR STRESS PERIOD    1   TIME STEP  130
 SOLVING FOR ZETA FOR LAYER     1 ZONE     2

    4634 UPPER PART EQS.      4634 LOWER PART EQS.    BAND WIDTH + 1 =   97
 STRESS PERIOD=  1 TIMESTEP=130 LAYER=  1 ZONE=  2 ACTIVE CELLS= 9268 NUMBER OF EQUATIONS=    9268
 
 SOLVING FOR HEAD 

 NO OUTPUT CONTROL FOR STRESS PERIOD    1   TIME STEP  131
 SOLVING FOR ZETA FOR LAYER     1 ZONE     2

    4913 UPPER PART EQS.      4929 LOWER PART EQS.    BAND WIDTH + 1 =  103
 STRESS PERIOD=  1 TIMESTEP=131 LAYER=  1 ZONE=  2 ACTIVE CELLS= 9842 NUMBER OF EQUATIONS=    9842
 
 SOLVING FOR HEAD 

 NO OUTPUT CONTROL FOR STRESS PERIOD    1   TIME STEP  132
 SOLVING FOR ZETA FOR LAYER     1 ZONE     2

    4631 UPPER PART EQS.      4632 LOWER PART EQS.    BAND WIDTH + 1 =   97
 STRESS PERIOD=  1 TIMESTEP=132 LAYER=  1 ZONE=  2 ACTIVE CELLS= 9263 NUMBER OF EQUATIONS=    9263
 
 SOLVING FOR HEAD 

 NO OUTPUT CONTROL FOR STRESS PERIOD    1   TIME STEP  133
 SOLVING FOR ZETA FOR LAYER     1 ZONE     2

    4912 UPPER PART EQS.      4927 LOWER PART EQS.    BAND WIDTH + 1 =  102
 STRESS PERIOD=  1 TIMESTEP=133 LAYER=  1 ZONE=  2 ACTIVE CELLS= 9839 NUMBER OF EQUATIONS=    9839
 
 SOLVING FOR HEAD 

 NO OUTPUT CONTROL FOR STRESS PERIOD    1   TIME STEP  134
 SOLVING FOR ZETA FOR LAYER     1 ZONE     2

    4635 UPPER PART EQS.      4638 LOWER PART EQS.    BAND WIDTH + 1 =   98
 STRESS PERIOD=  1 TIMESTEP=134 LAYER=  1 ZONE=  2 ACTIVE CELLS= 9273 NUMBER OF EQUATIONS=    9273
 
 SOLVING FOR HEAD 

 NO OUTPUT CONTROL FOR STRESS PERIOD    1   TIME STEP  135
 SOLVING FOR ZETA FOR LAYER     1 ZONE     2

    4909 UPPER PART EQS.      4911 LOWER PART EQS.    BAND WIDTH + 1 =  105
 STRESS PERIOD=  1 TIMESTEP=135 LAYER=  1 ZONE=  2 ACTIVE CELLS= 9820 NUMBER OF EQUATIONS=    9820
 
 SOLVING FOR HEAD 

 NO OUTPUT CONTROL FOR STRESS PERIOD    1   TIME STEP  136
 SOLVING FOR ZETA FOR LAYER     1 ZONE     2

    4640 UPPER PART EQS.      4639 LOWER PART EQS.    BAND WIDTH + 1 =   94
 STRESS PERIOD=  1 TIMESTEP=136 LAYER=  1 ZONE=  2 ACTIVE CELLS= 9279 NUMBER OF EQUATIONS=    9279
 
 SOLVING FOR HEAD 

 NO OUTPUT CONTROL FOR STRESS PERIOD    1   TIME STEP  137
 SOLVING FOR ZETA FOR LAYER     1 ZONE     2

    4901 UPPER PART EQS.      4915 LOWER PART EQS.    BAND WIDTH + 1 =  103
 STRESS PERIOD=  1 TIMESTEP=137 LAYER=  1 ZONE=  2 ACTIVE CELLS= 9816 NUMBER OF EQUATIONS=    9816
 
 SOLVING FOR HEAD 

 NO OUTPUT CONTROL FOR STRESS PERIOD    1   TIME STEP  138
 SOLVING FOR ZETA FOR LAYER     1 ZONE     2

    4643 UPPER PART EQS.      4627 LOWER PART EQS.    BAND WIDTH + 1 =   96
 STRESS PERIOD=  1 TIMESTEP=138 LAYER=  1 ZONE=  2 ACTIVE CELLS= 9270 NUMBER OF EQUATIONS=    9270
 
 SOLVING FOR HEAD 

 NO OUTPUT CONTROL FOR STRESS PERIOD    1   TIME STEP  139
 SOLVING FOR ZETA FOR LAYER     1 ZONE     2

    4895 UPPER PART EQS.      4910 LOWER PART EQS.    BAND WIDTH + 1 =  103
 STRESS PERIOD=  1 TIMESTEP=139 LAYER=  1 ZONE=  2 ACTIVE CELLS= 9805 NUMBER OF EQUATIONS=    9805
 
 SOLVING FOR HEAD 

 NO OUTPUT CONTROL FOR STRESS PERIOD    1   TIME STEP  140
 SOLVING FOR ZETA FOR LAYER     1 ZONE     2

    4640 UPPER PART EQS.      4634 LOWER PART EQS.    BAND WIDTH + 1 =   93
 STRESS PERIOD=  1 TIMESTEP=140 LAYER=  1 ZONE=  2 ACTIVE CELLS= 9274 NUMBER OF EQUATIONS=    9274
 
 SOLVING FOR HEAD 

 NO OUTPUT CONTROL FOR STRESS PERIOD    1   TIME STEP  141
 SOLVING FOR ZETA FOR LAYER     1 ZONE     2

    4892 UPPER PART EQS.      4903 LOWER PART EQS.    BAND WIDTH + 1 =  103
 STRESS PERIOD=  1 TIMESTEP=141 LAYER=  1 ZONE=  2 ACTIVE CELLS= 9795 NUMBER OF EQUATIONS=    9795
 
 SOLVING FOR HEAD 

 NO OUTPUT CONTROL FOR STRESS PERIOD    1   TIME STEP  142
 SOLVING FOR ZETA FOR LAYER     1 ZONE     2

    4636 UPPER PART EQS.      4637 LOWER PART EQS.    BAND WIDTH + 1 =   97
 STRESS PERIOD=  1 TIMESTEP=142 LAYER=  1 ZONE=  2 ACTIVE CELLS= 9273 NUMBER OF EQUATIONS=    9273
 
 SOLVING FOR HEAD 

 NO OUTPUT CONTROL FOR STRESS PERIOD    1   TIME STEP  143
 SOLVING FOR ZETA FOR LAYER     1 ZONE     2

    4892 UPPER PART EQS.      4901 LOWER PART EQS.    BAND WIDTH + 1 =  100
 STRESS PERIOD=  1 TIMESTEP=143 LAYER=  1 ZONE=  2 ACTIVE CELLS= 9793 NUMBER OF EQUATIONS=    9793
 
 SOLVING FOR HEAD 

 NO OUTPUT CONTROL FOR STRESS PERIOD    1   TIME STEP  144
 SOLVING FOR ZETA FOR LAYER     1 ZONE     2

    4634 UPPER PART EQS.      4627 LOWER PART EQS.    BAND WIDTH + 1 =   96
 STRESS PERIOD=  1 TIMESTEP=144 LAYER=  1 ZONE=  2 ACTIVE CELLS= 9261 NUMBER OF EQUATIONS=    9261
 
 SOLVING FOR HEAD 

 NO OUTPUT CONTROL FOR STRESS PERIOD    1   TIME STEP  145
 SOLVING FOR ZETA FOR LAYER     1 ZONE     2

    4888 UPPER PART EQS.      4894 LOWER PART EQS.    BAND WIDTH + 1 =  102
 STRESS PERIOD=  1 TIMESTEP=145 LAYER=  1 ZONE=  2 ACTIVE CELLS= 9782 NUMBER OF EQUATIONS=    9782
 
 SOLVING FOR HEAD 

 NO OUTPUT CONTROL FOR STRESS PERIOD    1   TIME STEP  146
 SOLVING FOR ZETA FOR LAYER     1 ZONE     2

    4641 UPPER PART EQS.      4636 LOWER PART EQS.    BAND WIDTH + 1 =   94
 STRESS PERIOD=  1 TIMESTEP=146 LAYER=  1 ZONE=  2 ACTIVE CELLS= 9277 NUMBER OF EQUATIONS=    9277
 
 SOLVING FOR HEAD 

 NO OUTPUT CONTROL FOR STRESS PERIOD    1   TIME STEP  147
 SOLVING FOR ZETA FOR LAYER     1 ZONE     2

    4885 UPPER PART EQS.      4886 LOWER PART EQS.    BAND WIDTH + 1 =  100
 STRESS PERIOD=  1 TIMESTEP=147 LAYER=  1 ZONE=  2 ACTIVE CELLS= 9771 NUMBER OF EQUATIONS=    9771
 
 SOLVING FOR HEAD 

 NO OUTPUT CONTROL FOR STRESS PERIOD    1   TIME STEP  148
 SOLVING FOR ZETA FOR LAYER     1 ZONE     2

    4641 UPPER PART EQS.      4639 LOWER PART EQS.    BAND WIDTH + 1 =   96
 STRESS PERIOD=  1 TIMESTEP=148 LAYER=  1 ZONE=  2 ACTIVE CELLS= 9280 NUMBER OF EQUATIONS=    9280
 
 SOLVING FOR HEAD 

 NO OUTPUT CONTROL FOR STRESS PERIOD    1   TIME STEP  149
 SOLVING FOR ZETA FOR LAYER     1 ZONE     2

    4885 UPPER PART EQS.      4885 LOWER PART EQS.    BAND WIDTH + 1 =   98
 STRESS PERIOD=  1 TIMESTEP=149 LAYER=  1 ZONE=  2 ACTIVE CELLS= 9770 NUMBER OF EQUATIONS=    9770
 
 SOLVING FOR HEAD 

 NO OUTPUT CONTROL FOR STRESS PERIOD    1   TIME STEP  150
 SOLVING FOR ZETA FOR LAYER     1 ZONE     2

    4638 UPPER PART EQS.      4644 LOWER PART EQS.    BAND WIDTH + 1 =   95
 STRESS PERIOD=  1 TIMESTEP=150 LAYER=  1 ZONE=  2 ACTIVE CELLS= 9282 NUMBER OF EQUATIONS=    9282
 
 SOLVING FOR HEAD 

 NO OUTPUT CONTROL FOR STRESS PERIOD    1   TIME STEP  151
 SOLVING FOR ZETA FOR LAYER     1 ZONE     2

    4879 UPPER PART EQS.      4887 LOWER PART EQS.    BAND WIDTH + 1 =  102
 STRESS PERIOD=  1 TIMESTEP=151 LAYER=  1 ZONE=  2 ACTIVE CELLS= 9766 NUMBER OF EQUATIONS=    9766
 
 SOLVING FOR HEAD 

 NO OUTPUT CONTROL FOR STRESS PERIOD    1   TIME STEP  152
 SOLVING FOR ZETA FOR LAYER     1 ZONE     2

    4641 UPPER PART EQS.      4638 LOWER PART EQS.    BAND WIDTH + 1 =   95
 STRESS PERIOD=  1 TIMESTEP=152 LAYER=  1 ZONE=  2 ACTIVE CELLS= 9279 NUMBER OF EQUATIONS=    9279
 
 SOLVING FOR HEAD 

 NO OUTPUT CONTROL FOR STRESS PERIOD    1   TIME STEP  153
 SOLVING FOR ZETA FOR LAYER     1 ZONE     2

    4874 UPPER PART EQS.      4880 LOWER PART EQS.    BAND WIDTH + 1 =   99
 STRESS PERIOD=  1 TIMESTEP=153 LAYER=  1 ZONE=  2 ACTIVE CELLS= 9754 NUMBER OF EQUATIONS=    9754
 
 SOLVING FOR HEAD 

 NO OUTPUT CONTROL FOR STRESS PERIOD    1   TIME STEP  154
 SOLVING FOR ZETA FOR LAYER     1 ZONE     2

    4631 UPPER PART EQS.      4645 LOWER PART EQS.    BAND WIDTH + 1 =   99
 STRESS PERIOD=  1 TIMESTEP=154 LAYER=  1 ZONE=  2 ACTIVE CELLS= 9276 NUMBER OF EQUATIONS=    9276
 
 SOLVING FOR HEAD 

 NO OUTPUT CONTROL FOR STRESS PERIOD    1   TIME STEP  155
 SOLVING FOR ZETA FOR LAYER     1 ZONE     2

    4877 UPPER PART EQS.      4879 LOWER PART EQS.    BAND WIDTH + 1 =  101
 STRESS PERIOD=  1 TIMESTEP=155 LAYER=  1 ZONE=  2 ACTIVE CELLS= 9756 NUMBER OF EQUATIONS=    9756
 
 SOLVING FOR HEAD 

 NO OUTPUT CONTROL FOR STRESS PERIOD    1   TIME STEP  156
 SOLVING FOR ZETA FOR LAYER     1 ZONE     2

    4642 UPPER PART EQS.      4641 LOWER PART EQS.    BAND WIDTH + 1 =   97
 STRESS PERIOD=  1 TIMESTEP=156 LAYER=  1 ZONE=  2 ACTIVE CELLS= 9283 NUMBER OF EQUATIONS=    9283
 
 SOLVING FOR HEAD 

 NO OUTPUT CONTROL FOR STRESS PERIOD    1   TIME STEP  157
 SOLVING FOR ZETA FOR LAYER     1 ZONE     2

    4866 UPPER PART EQS.      4880 LOWER PART EQS.    BAND WIDTH + 1 =   98
 STRESS PERIOD=  1 TIMESTEP=157 LAYER=  1 ZONE=  2 ACTIVE CELLS= 9746 NUMBER OF EQUATIONS=    9746
 
 SOLVING FOR HEAD 

 NO OUTPUT CONTROL FOR STRESS PERIOD    1   TIME STEP  158
 SOLVING FOR ZETA FOR LAYER     1 ZONE     2

    4639 UPPER PART EQS.      4647 LOWER PART EQS.    BAND WIDTH + 1 =   97
 STRESS PERIOD=  1 TIMESTEP=158 LAYER=  1 ZONE=  2 ACTIVE CELLS= 9286 NUMBER OF EQUATIONS=    9286
 
 SOLVING FOR HEAD 

 NO OUTPUT CONTROL FOR STRESS PERIOD    1   TIME STEP  159
 SOLVING FOR ZETA FOR LAYER     1 ZONE     2

    4866 UPPER PART EQS.      4866 LOWER PART EQS.    BAND WIDTH + 1 =   99
 STRESS PERIOD=  1 TIMESTEP=159 LAYER=  1 ZONE=  2 ACTIVE CELLS= 9732 NUMBER OF EQUATIONS=    9732
 
 SOLVING FOR HEAD 

 NO OUTPUT CONTROL FOR STRESS PERIOD    1   TIME STEP  160
 SOLVING FOR ZETA FOR LAYER     1 ZONE     2

    4643 UPPER PART EQS.      4646 LOWER PART EQS.    BAND WIDTH + 1 =   98
 STRESS PERIOD=  1 TIMESTEP=160 LAYER=  1 ZONE=  2 ACTIVE CELLS= 9289 NUMBER OF EQUATIONS=    9289
 
 SOLVING FOR HEAD 

 NO OUTPUT CONTROL FOR STRESS PERIOD    1   TIME STEP  161
 SOLVING FOR ZETA FOR LAYER     1 ZONE     2

    4867 UPPER PART EQS.      4871 LOWER PART EQS.    BAND WIDTH + 1 =   99
 STRESS PERIOD=  1 TIMESTEP=161 LAYER=  1 ZONE=  2 ACTIVE CELLS= 9738 NUMBER OF EQUATIONS=    9738
 
 SOLVING FOR HEAD 

 NO OUTPUT CONTROL FOR STRESS PERIOD    1   TIME STEP  162
 SOLVING FOR ZETA FOR LAYER     1 ZONE     2

    4640 UPPER PART EQS.      4639 LOWER PART EQS.    BAND WIDTH + 1 =   94
 STRESS PERIOD=  1 TIMESTEP=162 LAYER=  1 ZONE=  2 ACTIVE CELLS= 9279 NUMBER OF EQUATIONS=    9279
 
 SOLVING FOR HEAD 

 NO OUTPUT CONTROL FOR STRESS PERIOD    1   TIME STEP  163
 SOLVING FOR ZETA FOR LAYER     1 ZONE     2

    4860 UPPER PART EQS.      4872 LOWER PART EQS.    BAND WIDTH + 1 =   98
 STRESS PERIOD=  1 TIMESTEP=163 LAYER=  1 ZONE=  2 ACTIVE CELLS= 9732 NUMBER OF EQUATIONS=    9732
 
 SOLVING FOR HEAD 

 NO OUTPUT CONTROL FOR STRESS PERIOD    1   TIME STEP  164
 SOLVING FOR ZETA FOR LAYER     1 ZONE     2

    4641 UPPER PART EQS.      4641 LOWER PART EQS.    BAND WIDTH + 1 =   97
 STRESS PERIOD=  1 TIMESTEP=164 LAYER=  1 ZONE=  2 ACTIVE CELLS= 9282 NUMBER OF EQUATIONS=    9282
 
 SOLVING FOR HEAD 

 NO OUTPUT CONTROL FOR STRESS PERIOD    1   TIME STEP  165
 SOLVING FOR ZETA FOR LAYER     1 ZONE     2

    4863 UPPER PART EQS.      4859 LOWER PART EQS.    BAND WIDTH + 1 =  101
 STRESS PERIOD=  1 TIMESTEP=165 LAYER=  1 ZONE=  2 ACTIVE CELLS= 9722 NUMBER OF EQUATIONS=    9722
 
 SOLVING FOR HEAD 

 NO OUTPUT CONTROL FOR STRESS PERIOD    1   TIME STEP  166
 SOLVING FOR ZETA FOR LAYER     1 ZONE     2

    4639 UPPER PART EQS.      4646 LOWER PART EQS.    BAND WIDTH + 1 =   95
 STRESS PERIOD=  1 TIMESTEP=166 LAYER=  1 ZONE=  2 ACTIVE CELLS= 9285 NUMBER OF EQUATIONS=    9285
 
 SOLVING FOR HEAD 

 NO OUTPUT CONTROL FOR STRESS PERIOD    1   TIME STEP  167
 SOLVING FOR ZETA FOR LAYER     1 ZONE     2

    4858 UPPER PART EQS.      4866 LOWER PART EQS.    BAND WIDTH + 1 =  101
 STRESS PERIOD=  1 TIMESTEP=167 LAYER=  1 ZONE=  2 ACTIVE CELLS= 9724 NUMBER OF EQUATIONS=    9724
 
 SOLVING FOR HEAD 

 NO OUTPUT CONTROL FOR STRESS PERIOD    1   TIME STEP  168
 SOLVING FOR ZETA FOR LAYER     1 ZONE     2

    4636 UPPER PART EQS.      4640 LOWER PART EQS.    BAND WIDTH + 1 =   97
 STRESS PERIOD=  1 TIMESTEP=168 LAYER=  1 ZONE=  2 ACTIVE CELLS= 9276 NUMBER OF EQUATIONS=    9276
 
 SOLVING FOR HEAD 

 NO OUTPUT CONTROL FOR STRESS PERIOD    1   TIME STEP  169
 SOLVING FOR ZETA FOR LAYER     1 ZONE     2

    4867 UPPER PART EQS.      4867 LOWER PART EQS.    BAND WIDTH + 1 =  100
 STRESS PERIOD=  1 TIMESTEP=169 LAYER=  1 ZONE=  2 ACTIVE CELLS= 9734 NUMBER OF EQUATIONS=    9734
 
 SOLVING FOR HEAD 

 NO OUTPUT CONTROL FOR STRESS PERIOD    1   TIME STEP  170
 SOLVING FOR ZETA FOR LAYER     1 ZONE     2

    4630 UPPER PART EQS.      4641 LOWER PART EQS.    BAND WIDTH + 1 =   99
 STRESS PERIOD=  1 TIMESTEP=170 LAYER=  1 ZONE=  2 ACTIVE CELLS= 9271 NUMBER OF EQUATIONS=    9271
 
 SOLVING FOR HEAD 

 NO OUTPUT CONTROL FOR STRESS PERIOD    1   TIME STEP  171
 SOLVING FOR ZETA FOR LAYER     1 ZONE     2

    4865 UPPER PART EQS.      4862 LOWER PART EQS.    BAND WIDTH + 1 =   99
 STRESS PERIOD=  1 TIMESTEP=171 LAYER=  1 ZONE=  2 ACTIVE CELLS= 9727 NUMBER OF EQUATIONS=    9727
 
 SOLVING FOR HEAD 

 NO OUTPUT CONTROL FOR STRESS PERIOD    1   TIME STEP  172
 SOLVING FOR ZETA FOR LAYER     1 ZONE     2

    4638 UPPER PART EQS.      4637 LOWER PART EQS.    BAND WIDTH + 1 =  101
 STRESS PERIOD=  1 TIMESTEP=172 LAYER=  1 ZONE=  2 ACTIVE CELLS= 9275 NUMBER OF EQUATIONS=    9275
 
 SOLVING FOR HEAD 

 NO OUTPUT CONTROL FOR STRESS PERIOD    1   TIME STEP  173
 SOLVING FOR ZETA FOR LAYER     1 ZONE     2

    4857 UPPER PART EQS.      4867 LOWER PART EQS.    BAND WIDTH + 1 =   98
 STRESS PERIOD=  1 TIMESTEP=173 LAYER=  1 ZONE=  2 ACTIVE CELLS= 9724 NUMBER OF EQUATIONS=    9724
 
 SOLVING FOR HEAD 

 NO OUTPUT CONTROL FOR STRESS PERIOD    1   TIME STEP  174
 SOLVING FOR ZETA FOR LAYER     1 ZONE     2

    4629 UPPER PART EQS.      4641 LOWER PART EQS.    BAND WIDTH + 1 =  107
 INSUFFICIENT MEMORY FOR DE4 SOLVER:
 MXBW MUST BE AT LEAST  107
 
 SOLVING FOR HEAD 

 NO OUTPUT CONTROL FOR STRESS PERIOD    1   TIME STEP  175
 SOLVING FOR ZETA FOR LAYER     1 ZONE     2

    4998 UPPER PART EQS.      4998 LOWER PART EQS.    BAND WIDTH + 1 =  101
 STRESS PERIOD=  1 TIMESTEP=175 LAYER=  1 ZONE=  2 ACTIVE CELLS= 9996 NUMBER OF EQUATIONS=    9996
 
 SOLVING FOR HEAD 

 NO OUTPUT CONTROL FOR STRESS PERIOD    1   TIME STEP  176
 SOLVING FOR ZETA FOR LAYER     1 ZONE     2

    4507 UPPER PART EQS.      4526 LOWER PART EQS.    BAND WIDTH + 1 =  112
 INSUFFICIENT MEMORY FOR DE4 SOLVER:
 MXBW MUST BE AT LEAST  112
 
 SOLVING FOR HEAD 

 NO OUTPUT CONTROL FOR STRESS PERIOD    1   TIME STEP  177
 SOLVING FOR ZETA FOR LAYER     1 ZONE     2

    4998 UPPER PART EQS.      4998 LOWER PART EQS.    BAND WIDTH + 1 =  101
 STRESS PERIOD=  1 TIMESTEP=177 LAYER=  1 ZONE=  2 ACTIVE CELLS= 9996 NUMBER OF EQUATIONS=    9996
 
 SOLVING FOR HEAD 

 NO OUTPUT CONTROL FOR STRESS PERIOD    1   TIME STEP  178
 SOLVING FOR ZETA FOR LAYER     1 ZONE     2

    4503 UPPER PART EQS.      4523 LOWER PART EQS.    BAND WIDTH + 1 =  111
 INSUFFICIENT MEMORY FOR DE4 SOLVER:
 MXBW MUST BE AT LEAST  111
 
 SOLVING FOR HEAD 

 NO OUTPUT CONTROL FOR STRESS PERIOD    1   TIME STEP  179
 SOLVING FOR ZETA FOR LAYER     1 ZONE     2

    4998 UPPER PART EQS.      4998 LOWER PART EQS.    BAND WIDTH + 1 =  101
 STRESS PERIOD=  1 TIMESTEP=179 LAYER=  1 ZONE=  2 ACTIVE CELLS= 9996 NUMBER OF EQUATIONS=    9996
 
 SOLVING FOR HEAD 

 NO OUTPUT CONTROL FOR STRESS PERIOD    1   TIME STEP  180
 SOLVING FOR ZETA FOR LAYER     1 ZONE     2

    4501 UPPER PART EQS.      4523 LOWER PART EQS.    BAND WIDTH + 1 =  112
 INSUFFICIENT MEMORY FOR DE4 SOLVER:
 MXBW MUST BE AT LEAST  112
 
 SOLVING FOR HEAD 

 NO OUTPUT CONTROL FOR STRESS PERIOD    1   TIME STEP  181
 SOLVING FOR ZETA FOR LAYER     1 ZONE     2

    4997 UPPER PART EQS.      4997 LOWER PART EQS.    BAND WIDTH + 1 =  101
 STRESS PERIOD=  1 TIMESTEP=181 LAYER=  1 ZONE=  2 ACTIVE CELLS= 9994 NUMBER OF EQUATIONS=    9994
 
 SOLVING FOR HEAD 

 NO OUTPUT CONTROL FOR STRESS PERIOD    1   TIME STEP  182
 SOLVING FOR ZETA FOR LAYER     1 ZONE     2

    4497 UPPER PART EQS.      4524 LOWER PART EQS.    BAND WIDTH + 1 =  116
 INSUFFICIENT MEMORY FOR DE4 SOLVER:
 MXBW MUST BE AT LEAST  116
 
 SOLVING FOR HEAD 

 NO OUTPUT CONTROL FOR STRESS PERIOD    1   TIME STEP  183
 SOLVING FOR ZETA FOR LAYER     1 ZONE     2

    4998 UPPER PART EQS.      4998 LOWER PART EQS.    BAND WIDTH + 1 =  101
 STRESS PERIOD=  1 TIMESTEP=183 LAYER=  1 ZONE=  2 ACTIVE CELLS= 9996 NUMBER OF EQUATIONS=    9996
 
 SOLVING FOR HEAD 

 NO OUTPUT CONTROL FOR STRESS PERIOD    1   TIME STEP  184
 SOLVING FOR ZETA FOR LAYER     1 ZONE     2

    4498 UPPER PART EQS.      4527 LOWER PART EQS.    BAND WIDTH + 1 =  118
 INSUFFICIENT MEMORY FOR DE4 SOLVER:
 MXBW MUST BE AT LEAST  118
 
 SOLVING FOR HEAD 

 NO OUTPUT CONTROL FOR STRESS PERIOD    1   TIME STEP  185
 SOLVING FOR ZETA FOR LAYER     1 ZONE     2

    4998 UPPER PART EQS.      4998 LOWER PART EQS.    BAND WIDTH + 1 =  101
 STRESS PERIOD=  1 TIMESTEP=185 LAYER=  1 ZONE=  2 ACTIVE CELLS= 9996 NUMBER OF EQUATIONS=    9996
 
 SOLVING FOR HEAD 

 NO OUTPUT CONTROL FOR STRESS PERIOD    1   TIME STEP  186
 SOLVING FOR ZETA FOR LAYER     1 ZONE     2

    4500 UPPER PART EQS.      4528 LOWER PART EQS.    BAND WIDTH + 1 =  118
 INSUFFICIENT MEMORY FOR DE4 SOLVER:
 MXBW MUST BE AT LEAST  118
 
 SOLVING FOR HEAD 

 NO OUTPUT CONTROL FOR STRESS PERIOD    1   TIME STEP  187
 SOLVING FOR ZETA FOR LAYER     1 ZONE     2

    4998 UPPER PART EQS.      4998 LOWER PART EQS.    BAND WIDTH + 1 =  101
 STRESS PERIOD=  1 TIMESTEP=187 LAYER=  1 ZONE=  2 ACTIVE CELLS= 9996 NUMBER OF EQUATIONS=    9996
 
 SOLVING FOR HEAD 

 NO OUTPUT CONTROL FOR STRESS PERIOD    1   TIME STEP  188
 SOLVING FOR ZETA FOR LAYER     1 ZONE     2

    4500 UPPER PART EQS.      4526 LOWER PART EQS.    BAND WIDTH + 1 =  117
 INSUFFICIENT MEMORY FOR DE4 SOLVER:
 MXBW MUST BE AT LEAST  117
 
 SOLVING FOR HEAD 

 NO OUTPUT CONTROL FOR STRESS PERIOD    1   TIME STEP  189
 SOLVING FOR ZETA FOR LAYER     1 ZONE     2

    4998 UPPER PART EQS.      4998 LOWER PART EQS.    BAND WIDTH + 1 =  101
 STRESS PERIOD=  1 TIMESTEP=189 LAYER=  1 ZONE=  2 ACTIVE CELLS= 9996 NUMBER OF EQUATIONS=    9996
 
 SOLVING FOR HEAD 

 NO OUTPUT CONTROL FOR STRESS PERIOD    1   TIME STEP  190
 SOLVING FOR ZETA FOR LAYER     1 ZONE     2

    4499 UPPER PART EQS.      4525 LOWER PART EQS.    BAND WIDTH + 1 =  118
 INSUFFICIENT MEMORY FOR DE4 SOLVER:
 MXBW MUST BE AT LEAST  118
 
 SOLVING FOR HEAD 

 NO OUTPUT CONTROL FOR STRESS PERIOD    1   TIME STEP  191
 SOLVING FOR ZETA FOR LAYER     1 ZONE     2

    4998 UPPER PART EQS.      4998 LOWER PART EQS.    BAND WIDTH + 1 =  101
 STRESS PERIOD=  1 TIMESTEP=191 LAYER=  1 ZONE=  2 ACTIVE CELLS= 9996 NUMBER OF EQUATIONS=    9996
 
 SOLVING FOR HEAD 

 NO OUTPUT CONTROL FOR STRESS PERIOD    1   TIME STEP  192
 SOLVING FOR ZETA FOR LAYER     1 ZONE     2

    4499 UPPER PART EQS.      4525 LOWER PART EQS.    BAND WIDTH + 1 =  118
 INSUFFICIENT MEMORY FOR DE4 SOLVER:
 MXBW MUST BE AT LEAST  118
 
 SOLVING FOR HEAD 

 NO OUTPUT CONTROL FOR STRESS PERIOD    1   TIME STEP  193
 SOLVING FOR ZETA FOR LAYER     1 ZONE     2

    4997 UPPER PART EQS.      4998 LOWER PART EQS.    BAND WIDTH + 1 =  101
 STRESS PERIOD=  1 TIMESTEP=193 LAYER=  1 ZONE=  2 ACTIVE CELLS= 9995 NUMBER OF EQUATIONS=    9995
 
 SOLVING FOR HEAD 

 NO OUTPUT CONTROL FOR STRESS PERIOD    1   TIME STEP  194
 SOLVING FOR ZETA FOR LAYER     1 ZONE     2

    4498 UPPER PART EQS.      4528 LOWER PART EQS.    BAND WIDTH + 1 =  120
 INSUFFICIENT MEMORY FOR DE4 SOLVER:
 MXBW MUST BE AT LEAST  120
 
 SOLVING FOR HEAD 

 NO OUTPUT CONTROL FOR STRESS PERIOD    1   TIME STEP  195
 SOLVING FOR ZETA FOR LAYER     1 ZONE     2

    4996 UPPER PART EQS.      4998 LOWER PART EQS.    BAND WIDTH + 1 =  101
 STRESS PERIOD=  1 TIMESTEP=195 LAYER=  1 ZONE=  2 ACTIVE CELLS= 9994 NUMBER OF EQUATIONS=    9994
 
 SOLVING FOR HEAD 

 NO OUTPUT CONTROL FOR STRESS PERIOD    1   TIME STEP  196
 SOLVING FOR ZETA FOR LAYER     1 ZONE     2

    4496 UPPER PART EQS.      4527 LOWER PART EQS.    BAND WIDTH + 1 =  120
 INSUFFICIENT MEMORY FOR DE4 SOLVER:
 MXBW MUST BE AT LEAST  120
 
 SOLVING FOR HEAD 

 NO OUTPUT CONTROL FOR STRESS PERIOD    1   TIME STEP  197
 SOLVING FOR ZETA FOR LAYER     1 ZONE     2

    4996 UPPER PART EQS.      4998 LOWER PART EQS.    BAND WIDTH + 1 =  101
 STRESS PERIOD=  1 TIMESTEP=197 LAYER=  1 ZONE=  2 ACTIVE CELLS= 9994 NUMBER OF EQUATIONS=    9994
 
 SOLVING FOR HEAD 

 NO OUTPUT CONTROL FOR STRESS PERIOD    1   TIME STEP  198
 SOLVING FOR ZETA FOR LAYER     1 ZONE     2

    4496 UPPER PART EQS.      4523 LOWER PART EQS.    BAND WIDTH + 1 =  118
 INSUFFICIENT MEMORY FOR DE4 SOLVER:
 MXBW MUST BE AT LEAST  118
 
 SOLVING FOR HEAD 

 NO OUTPUT CONTROL FOR STRESS PERIOD    1   TIME STEP  199
 SOLVING FOR ZETA FOR LAYER     1 ZONE     2

    4996 UPPER PART EQS.      4998 LOWER PART EQS.    BAND WIDTH + 1 =  101
 STRESS PERIOD=  1 TIMESTEP=199 LAYER=  1 ZONE=  2 ACTIVE CELLS= 9994 NUMBER OF EQUATIONS=    9994
 
 SOLVING FOR HEAD 

 OUTPUT CONTROL FOR STRESS PERIOD    1   TIME STEP  200
    PRINT BUDGET
    SAVE HEAD FOR ALL LAYERS
 SOLVING FOR ZETA FOR LAYER     1 ZONE     2

    4495 UPPER PART EQS.      4525 LOWER PART EQS.    BAND WIDTH + 1 =  119
 INSUFFICIENT MEMORY FOR DE4 SOLVER:
 MXBW MUST BE AT LEAST  119
 UBUDSV SAVING "      ZETASRF  1" ON UNIT 55 AT TIME STEP200, STRESS PERIOD    1


                      VOLUMETRIC SWI ZONE BUDGET FOR ENTIRE MODEL
                     AT END OF TIME STEP  200 IN STRESS PERIOD   1
                                      ZONE     1
  -----------------------------------------------------------------------------------

        CUMULATIVE VOLUMES      L**3       RATES FOR THIS TIME STEP      L**3/T
        ------------------                 ------------------------

              IN:                                      IN:
              ---                                      ---
             BOUNDARIES =    84799776.0000            BOUNDARIES =        5855.7754
          CONSTANT HEAD =           0.0000         CONSTANT HEAD =           0.0000
            ZONE CHANGE =     7035215.0000           ZONE CHANGE =           0.0000
       ZONE CHG TIP/TOE =    10808304.0000      ZONE CHG TIP/TOE =          11.6613
            ZONE MIXING =           0.0000           ZONE MIXING =           0.0000

               TOTAL IN =   102643296.0000              TOTAL IN =        5867.4365

             OUT:                                     OUT:
             ----                                     ----
             BOUNDARIES =    44902044.0000            BOUNDARIES =       6.6885E-03
          CONSTANT HEAD =           0.0000         CONSTANT HEAD =           0.0000
            ZONE CHANGE =    38058128.0000           ZONE CHANGE =           0.0000
       ZONE CHG TIP/TOE =      746664.1875      ZONE CHG TIP/TOE =          22.4049
            ZONE MIXING =           0.0000           ZONE MIXING =           0.0000

              TOTAL OUT =    83706840.0000             TOTAL OUT =          22.4116

               IN - OUT =    18936456.0000              IN - OUT =        5845.0249

    PERCENT DISCREPANCY =          20.32     PERCENT DISCREPANCY =         198.48



                      VOLUMETRIC SWI ZONE BUDGET FOR ENTIRE MODEL
                     AT END OF TIME STEP  200 IN STRESS PERIOD   1
                                      ZONE     2
  -----------------------------------------------------------------------------------

        CUMULATIVE VOLUMES      L**3       RATES FOR THIS TIME STEP      L**3/T
        ------------------                 ------------------------

              IN:                                      IN:
              ---                                      ---
             BOUNDARIES =      840659.9375            BOUNDARIES =           5.9877
          CONSTANT HEAD =           0.0000         CONSTANT HEAD =           0.0000
            ZONE CHANGE =    27317114.0000           ZONE CHANGE =           0.0000
       ZONE CHG TIP/TOE =    22527006.0000      ZONE CHG TIP/TOE =          22.4049
            ZONE MIXING =           0.0000           ZONE MIXING =           0.0000

               TOTAL IN =    50684780.0000              TOTAL IN =          28.3926

             OUT:                                     OUT:
             ----                                     ----
             BOUNDARIES =    40738276.0000            BOUNDARIES =        5861.7563
          CONSTANT HEAD =           0.0000         CONSTANT HEAD =           0.0000
            ZONE CHANGE =    28815550.0000           ZONE CHANGE =           0.0000
       ZONE CHG TIP/TOE =       67285.2656      ZONE CHG TIP/TOE =          11.6613
            ZONE MIXING =           0.0000           ZONE MIXING =           0.0000

              TOTAL OUT =    69621112.0000             TOTAL OUT =        5873.4175

               IN - OUT =   -18936332.0000              IN - OUT =       -5845.0249

    PERCENT DISCREPANCY =         -31.48     PERCENT DISCREPANCY =        -198.08


 HEAD WILL BE SAVED ON UNIT   51 AT END OF TIME STEP  200, STRESS PERIOD    1
1
  VOLUMETRIC BUDGET FOR ENTIRE MODEL AT END OF TIME STEP  200, STRESS PERIOD   1
  ------------------------------------------------------------------------------

     CUMULATIVE VOLUMES      L**3       RATES FOR THIS TIME STEP      L**3/T
     ------------------                 ------------------------

           IN:                                      IN:
           ---                                      ---
             STORAGE =           0.0000               STORAGE =           0.0000
       CONSTANT HEAD =           0.0000         CONSTANT HEAD =           0.0000
          SWIADDTOCH =           0.0000            SWIADDTOCH =           0.0000
     HEAD DEP BOUNDS =           3.1094       HEAD DEP BOUNDS =       2.1072E-04
            RECHARGE =    85640160.0000              RECHARGE =        5861.7627

            TOTAL IN =    85640160.0000              TOTAL IN =        5861.7627

          OUT:                                     OUT:
          ----                                     ----
             STORAGE =           0.0000               STORAGE =           0.0000
       CONSTANT HEAD =           0.0000         CONSTANT HEAD =           0.0000
          SWIADDTOCH =           0.0000            SWIADDTOCH =           0.0000
     HEAD DEP BOUNDS =    85640160.0000       HEAD DEP BOUNDS =        5861.7627
            RECHARGE =           0.0000              RECHARGE =           0.0000

           TOTAL OUT =    85640160.0000             TOTAL OUT =        5861.7627

            IN - OUT =           0.0000              IN - OUT =           0.0000

 PERCENT DISCREPANCY =           0.00     PERCENT DISCREPANCY =           0.00






         TIME SUMMARY AT END OF TIME STEP  200 IN STRESS PERIOD    1
                    SECONDS     MINUTES      HOURS       DAYS        YEARS
                    -----------------------------------------------------------
   TIME STEP LENGTH 6.31152E+06 1.05192E+05  1753.2      73.050     0.20000    
 STRESS PERIOD TIME 1.26230E+09 2.10384E+07 3.50639E+05  14610.      40.000    
         TOTAL TIME 1.26230E+09 2.10384E+07 3.50639E+05  14610.      40.000    
1
 
 SOLVING FOR HEAD 

 NO OUTPUT CONTROL FOR STRESS PERIOD    1   TIME STEP  201
 SOLVING FOR ZETA FOR LAYER     1 ZONE     2

    4996 UPPER PART EQS.      4998 LOWER PART EQS.    BAND WIDTH + 1 =  101
 STRESS PERIOD=  1 TIMESTEP=201 LAYER=  1 ZONE=  2 ACTIVE CELLS= 9994 NUMBER OF EQUATIONS=    9994
 
 SOLVING FOR HEAD 

 NO OUTPUT CONTROL FOR STRESS PERIOD    1   TIME STEP  202
 SOLVING FOR ZETA FOR LAYER     1 ZONE     2

    4497 UPPER PART EQS.      4523 LOWER PART EQS.    BAND WIDTH + 1 =  116
 INSUFFICIENT MEMORY FOR DE4 SOLVER:
 MXBW MUST BE AT LEAST  116
 
 SOLVING FOR HEAD 

 NO OUTPUT CONTROL FOR STRESS PERIOD    1   TIME STEP  203
 SOLVING FOR ZETA FOR LAYER     1 ZONE     2

    4996 UPPER PART EQS.      4998 LOWER PART EQS.    BAND WIDTH + 1 =  101
 STRESS PERIOD=  1 TIMESTEP=203 LAYER=  1 ZONE=  2 ACTIVE CELLS= 9994 NUMBER OF EQUATIONS=    9994
 
 SOLVING FOR HEAD 

 NO OUTPUT CONTROL FOR STRESS PERIOD    1   TIME STEP  204
 SOLVING FOR ZETA FOR LAYER     1 ZONE     2

    4496 UPPER PART EQS.      4520 LOWER PART EQS.    BAND WIDTH + 1 =  115
 INSUFFICIENT MEMORY FOR DE4 SOLVER:
 MXBW MUST BE AT LEAST  115
 
 SOLVING FOR HEAD 

 NO OUTPUT CONTROL FOR STRESS PERIOD    1   TIME STEP  205
 SOLVING FOR ZETA FOR LAYER     1 ZONE     2

    4996 UPPER PART EQS.      4998 LOWER PART EQS.    BAND WIDTH + 1 =  101
 STRESS PERIOD=  1 TIMESTEP=205 LAYER=  1 ZONE=  2 ACTIVE CELLS= 9994 NUMBER OF EQUATIONS=    9994
 
 SOLVING FOR HEAD 

 NO OUTPUT CONTROL FOR STRESS PERIOD    1   TIME STEP  206
 SOLVING FOR ZETA FOR LAYER     1 ZONE     2

    4495 UPPER PART EQS.      4518 LOWER PART EQS.    BAND WIDTH + 1 =  112
 INSUFFICIENT MEMORY FOR DE4 SOLVER:
 MXBW MUST BE AT LEAST  112
 
 SOLVING FOR HEAD 

 NO OUTPUT CONTROL FOR STRESS PERIOD    1   TIME STEP  207
 SOLVING FOR ZETA FOR LAYER     1 ZONE     2

    4996 UPPER PART EQS.      4998 LOWER PART EQS.    BAND WIDTH + 1 =  101
 STRESS PERIOD=  1 TIMESTEP=207 LAYER=  1 ZONE=  2 ACTIVE CELLS= 9994 NUMBER OF EQUATIONS=    9994
 
 SOLVING FOR HEAD 

 NO OUTPUT CONTROL FOR STRESS PERIOD    1   TIME STEP  208
 SOLVING FOR ZETA FOR LAYER     1 ZONE     2

    4494 UPPER PART EQS.      4519 LOWER PART EQS.    BAND WIDTH + 1 =  114
 INSUFFICIENT MEMORY FOR DE4 SOLVER:
 MXBW MUST BE AT LEAST  114
 
 SOLVING FOR HEAD 

 NO OUTPUT CONTROL FOR STRESS PERIOD    1   TIME STEP  209
 SOLVING FOR ZETA FOR LAYER     1 ZONE     2

    4996 UPPER PART EQS.      4998 LOWER PART EQS.    BAND WIDTH + 1 =  101
 STRESS PERIOD=  1 TIMESTEP=209 LAYER=  1 ZONE=  2 ACTIVE CELLS= 9994 NUMBER OF EQUATIONS=    9994
 
 SOLVING FOR HEAD 

 NO OUTPUT CONTROL FOR STRESS PERIOD    1   TIME STEP  210
 SOLVING FOR ZETA FOR LAYER     1 ZONE     2

    4493 UPPER PART EQS.      4517 LOWER PART EQS.    BAND WIDTH + 1 =  114
 INSUFFICIENT MEMORY FOR DE4 SOLVER:
 MXBW MUST BE AT LEAST  114
 
 SOLVING FOR HEAD 

 NO OUTPUT CONTROL FOR STRESS PERIOD    1   TIME STEP  211
 SOLVING FOR ZETA FOR LAYER     1 ZONE     2

    4996 UPPER PART EQS.      4998 LOWER PART EQS.    BAND WIDTH + 1 =  101
 STRESS PERIOD=  1 TIMESTEP=211 LAYER=  1 ZONE=  2 ACTIVE CELLS= 9994 NUMBER OF EQUATIONS=    9994
 
 SOLVING FOR HEAD 

 NO OUTPUT CONTROL FOR STRESS PERIOD    1   TIME STEP  212
 SOLVING FOR ZETA FOR LAYER     1 ZONE     2

    4493 UPPER PART EQS.      4518 LOWER PART EQS.    BAND WIDTH + 1 =  114
 INSUFFICIENT MEMORY FOR DE4 SOLVER:
 MXBW MUST BE AT LEAST  114
 
 SOLVING FOR HEAD 

 NO OUTPUT CONTROL FOR STRESS PERIOD    1   TIME STEP  213
 SOLVING FOR ZETA FOR LAYER     1 ZONE     2

    4996 UPPER PART EQS.      4998 LOWER PART EQS.    BAND WIDTH + 1 =  101
 STRESS PERIOD=  1 TIMESTEP=213 LAYER=  1 ZONE=  2 ACTIVE CELLS= 9994 NUMBER OF EQUATIONS=    9994
 
 SOLVING FOR HEAD 

 NO OUTPUT CONTROL FOR STRESS PERIOD    1   TIME STEP  214
 SOLVING FOR ZETA FOR LAYER     1 ZONE     2

    4494 UPPER PART EQS.      4519 LOWER PART EQS.    BAND WIDTH + 1 =  116
 INSUFFICIENT MEMORY FOR DE4 SOLVER:
 MXBW MUST BE AT LEAST  116
 
 SOLVING FOR HEAD 

 NO OUTPUT CONTROL FOR STRESS PERIOD    1   TIME STEP  215
 SOLVING FOR ZETA FOR LAYER     1 ZONE     2

    4996 UPPER PART EQS.      4998 LOWER PART EQS.    BAND WIDTH + 1 =  101
 STRESS PERIOD=  1 TIMESTEP=215 LAYER=  1 ZONE=  2 ACTIVE CELLS= 9994 NUMBER OF EQUATIONS=    9994
 
 SOLVING FOR HEAD 

 NO OUTPUT CONTROL FOR STRESS PERIOD    1   TIME STEP  216
 SOLVING FOR ZETA FOR LAYER     1 ZONE     2

    4493 UPPER PART EQS.      4518 LOWER PART EQS.    BAND WIDTH + 1 =  115
 INSUFFICIENT MEMORY FOR DE4 SOLVER:
 MXBW MUST BE AT LEAST  115
 
 SOLVING FOR HEAD 

 NO OUTPUT CONTROL FOR STRESS PERIOD    1   TIME STEP  217
 SOLVING FOR ZETA FOR LAYER     1 ZONE     2

    4996 UPPER PART EQS.      4998 LOWER PART EQS.    BAND WIDTH + 1 =  101
 STRESS PERIOD=  1 TIMESTEP=217 LAYER=  1 ZONE=  2 ACTIVE CELLS= 9994 NUMBER OF EQUATIONS=    9994
 
 SOLVING FOR HEAD 

 NO OUTPUT CONTROL FOR STRESS PERIOD    1   TIME STEP  218
 SOLVING FOR ZETA FOR LAYER     1 ZONE     2

    4492 UPPER PART EQS.      4519 LOWER PART EQS.    BAND WIDTH + 1 =  116
 INSUFFICIENT MEMORY FOR DE4 SOLVER:
 MXBW MUST BE AT LEAST  116
 
 SOLVING FOR HEAD 

 NO OUTPUT CONTROL FOR STRESS PERIOD    1   TIME STEP  219
 SOLVING FOR ZETA FOR LAYER     1 ZONE     2

    4996 UPPER PART EQS.      4998 LOWER PART EQS.    BAND WIDTH + 1 =  101
 STRESS PERIOD=  1 TIMESTEP=219 LAYER=  1 ZONE=  2 ACTIVE CELLS= 9994 NUMBER OF EQUATIONS=    9994
 
 SOLVING FOR HEAD 

 NO OUTPUT CONTROL FOR STRESS PERIOD    1   TIME STEP  220
 SOLVING FOR ZETA FOR LAYER     1 ZONE     2

    4494 UPPER PART EQS.      4517 LOWER PART EQS.    BAND WIDTH + 1 =  114
 INSUFFICIENT MEMORY FOR DE4 SOLVER:
 MXBW MUST BE AT LEAST  114
 
 SOLVING FOR HEAD 

 NO OUTPUT CONTROL FOR STRESS PERIOD    1   TIME STEP  221
 SOLVING FOR ZETA FOR LAYER     1 ZONE     2

    4996 UPPER PART EQS.      4998 LOWER PART EQS.    BAND WIDTH + 1 =  101
 STRESS PERIOD=  1 TIMESTEP=221 LAYER=  1 ZONE=  2 ACTIVE CELLS= 9994 NUMBER OF EQUATIONS=    9994
 
 SOLVING FOR HEAD 

 NO OUTPUT CONTROL FOR STRESS PERIOD    1   TIME STEP  222
 SOLVING FOR ZETA FOR LAYER     1 ZONE     2

    4496 UPPER PART EQS.      4515 LOWER PART EQS.    BAND WIDTH + 1 =  108
 INSUFFICIENT MEMORY FOR DE4 SOLVER:
 MXBW MUST BE AT LEAST  108
 
 SOLVING FOR HEAD 

 NO OUTPUT CONTROL FOR STRESS PERIOD    1   TIME STEP  223
 SOLVING FOR ZETA FOR LAYER     1 ZONE     2

    4996 UPPER PART EQS.      4998 LOWER PART EQS.    BAND WIDTH + 1 =  101
 STRESS PERIOD=  1 TIMESTEP=223 LAYER=  1 ZONE=  2 ACTIVE CELLS= 9994 NUMBER OF EQUATIONS=    9994
 
 SOLVING FOR HEAD 

 NO OUTPUT CONTROL FOR STRESS PERIOD    1   TIME STEP  224
 SOLVING FOR ZETA FOR LAYER     1 ZONE     2

    4497 UPPER PART EQS.      4513 LOWER PART EQS.    BAND WIDTH + 1 =  107
 INSUFFICIENT MEMORY FOR DE4 SOLVER:
 MXBW MUST BE AT LEAST  107
 
 SOLVING FOR HEAD 

 NO OUTPUT CONTROL FOR STRESS PERIOD    1   TIME STEP  225
 SOLVING FOR ZETA FOR LAYER     1 ZONE     2

    4996 UPPER PART EQS.      4998 LOWER PART EQS.    BAND WIDTH + 1 =  101
 STRESS PERIOD=  1 TIMESTEP=225 LAYER=  1 ZONE=  2 ACTIVE CELLS= 9994 NUMBER OF EQUATIONS=    9994
 
 SOLVING FOR HEAD 

 NO OUTPUT CONTROL FOR STRESS PERIOD    1   TIME STEP  226
 SOLVING FOR ZETA FOR LAYER     1 ZONE     2

    4498 UPPER PART EQS.      4512 LOWER PART EQS.    BAND WIDTH + 1 =  106
 INSUFFICIENT MEMORY FOR DE4 SOLVER:
 MXBW MUST BE AT LEAST  106
 
 SOLVING FOR HEAD 

 NO OUTPUT CONTROL FOR STRESS PERIOD    1   TIME STEP  227
 SOLVING FOR ZETA FOR LAYER     1 ZONE     2

    4996 UPPER PART EQS.      4998 LOWER PART EQS.    BAND WIDTH + 1 =  101
 STRESS PERIOD=  1 TIMESTEP=227 LAYER=  1 ZONE=  2 ACTIVE CELLS= 9994 NUMBER OF EQUATIONS=    9994
 
 SOLVING FOR HEAD 

 NO OUTPUT CONTROL FOR STRESS PERIOD    1   TIME STEP  228
 SOLVING FOR ZETA FOR LAYER     1 ZONE     2

    4495 UPPER PART EQS.      4516 LOWER PART EQS.    BAND WIDTH + 1 =  112
 INSUFFICIENT MEMORY FOR DE4 SOLVER:
 MXBW MUST BE AT LEAST  112
 
 SOLVING FOR HEAD 

 NO OUTPUT CONTROL FOR STRESS PERIOD    1   TIME STEP  229
 SOLVING FOR ZETA FOR LAYER     1 ZONE     2

    4996 UPPER PART EQS.      4998 LOWER PART EQS.    BAND WIDTH + 1 =  101
 STRESS PERIOD=  1 TIMESTEP=229 LAYER=  1 ZONE=  2 ACTIVE CELLS= 9994 NUMBER OF EQUATIONS=    9994
 
 SOLVING FOR HEAD 

 NO OUTPUT CONTROL FOR STRESS PERIOD    1   TIME STEP  230
 SOLVING FOR ZETA FOR LAYER     1 ZONE     2

    4493 UPPER PART EQS.      4516 LOWER PART EQS.    BAND WIDTH + 1 =  113
 INSUFFICIENT MEMORY FOR DE4 SOLVER:
 MXBW MUST BE AT LEAST  113
 
 SOLVING FOR HEAD 

 NO OUTPUT CONTROL FOR STRESS PERIOD    1   TIME STEP  231
 SOLVING FOR ZETA FOR LAYER     1 ZONE     2

    4996 UPPER PART EQS.      4998 LOWER PART EQS.    BAND WIDTH + 1 =  101
 STRESS PERIOD=  1 TIMESTEP=231 LAYER=  1 ZONE=  2 ACTIVE CELLS= 9994 NUMBER OF EQUATIONS=    9994
 
 SOLVING FOR HEAD 

 NO OUTPUT CONTROL FOR STRESS PERIOD    1   TIME STEP  232
 SOLVING FOR ZETA FOR LAYER     1 ZONE     2

    4494 UPPER PART EQS.      4514 LOWER PART EQS.    BAND WIDTH + 1 =  111
 INSUFFICIENT MEMORY FOR DE4 SOLVER:
 MXBW MUST BE AT LEAST  111
 
 SOLVING FOR HEAD 

 NO OUTPUT CONTROL FOR STRESS PERIOD    1   TIME STEP  233
 SOLVING FOR ZETA FOR LAYER     1 ZONE     2

    4996 UPPER PART EQS.      4998 LOWER PART EQS.    BAND WIDTH + 1 =  101
 STRESS PERIOD=  1 TIMESTEP=233 LAYER=  1 ZONE=  2 ACTIVE CELLS= 9994 NUMBER OF EQUATIONS=    9994
 
 SOLVING FOR HEAD 

 NO OUTPUT CONTROL FOR STRESS PERIOD    1   TIME STEP  234
 SOLVING FOR ZETA FOR LAYER     1 ZONE     2

    4488 UPPER PART EQS.      4513 LOWER PART EQS.    BAND WIDTH + 1 =  115
 INSUFFICIENT MEMORY FOR DE4 SOLVER:
 MXBW MUST BE AT LEAST  115
 
 SOLVING FOR HEAD 

 NO OUTPUT CONTROL FOR STRESS PERIOD    1   TIME STEP  235
 SOLVING FOR ZETA FOR LAYER     1 ZONE     2

    4996 UPPER PART EQS.      4998 LOWER PART EQS.    BAND WIDTH + 1 =  101
 STRESS PERIOD=  1 TIMESTEP=235 LAYER=  1 ZONE=  2 ACTIVE CELLS= 9994 NUMBER OF EQUATIONS=    9994
 
 SOLVING FOR HEAD 

 NO OUTPUT CONTROL FOR STRESS PERIOD    1   TIME STEP  236
 SOLVING FOR ZETA FOR LAYER     1 ZONE     2

    4490 UPPER PART EQS.      4512 LOWER PART EQS.    BAND WIDTH + 1 =  114
 INSUFFICIENT MEMORY FOR DE4 SOLVER:
 MXBW MUST BE AT LEAST  114
 
 SOLVING FOR HEAD 

 NO OUTPUT CONTROL FOR STRESS PERIOD    1   TIME STEP  237
 SOLVING FOR ZETA FOR LAYER     1 ZONE     2

    4996 UPPER PART EQS.      4998 LOWER PART EQS.    BAND WIDTH + 1 =  101
 STRESS PERIOD=  1 TIMESTEP=237 LAYER=  1 ZONE=  2 ACTIVE CELLS= 9994 NUMBER OF EQUATIONS=    9994
 
 SOLVING FOR HEAD 

 NO OUTPUT CONTROL FOR STRESS PERIOD    1   TIME STEP  238
 SOLVING FOR ZETA FOR LAYER     1 ZONE     2

    4489 UPPER PART EQS.      4509 LOWER PART EQS.    BAND WIDTH + 1 =  113
 INSUFFICIENT MEMORY FOR DE4 SOLVER:
 MXBW MUST BE AT LEAST  113
 
 SOLVING FOR HEAD 

 NO OUTPUT CONTROL FOR STRESS PERIOD    1   TIME STEP  239
 SOLVING FOR ZETA FOR LAYER     1 ZONE     2

    4996 UPPER PART EQS.      4998 LOWER PART EQS.    BAND WIDTH + 1 =  101
 STRESS PERIOD=  1 TIMESTEP=239 LAYER=  1 ZONE=  2 ACTIVE CELLS= 9994 NUMBER OF EQUATIONS=    9994
 
 SOLVING FOR HEAD 

 NO OUTPUT CONTROL FOR STRESS PERIOD    1   TIME STEP  240
 SOLVING FOR ZETA FOR LAYER     1 ZONE     2

    4488 UPPER PART EQS.      4508 LOWER PART EQS.    BAND WIDTH + 1 =  113
 INSUFFICIENT MEMORY FOR DE4 SOLVER:
 MXBW MUST BE AT LEAST  113
 
 SOLVING FOR HEAD 

 NO OUTPUT CONTROL FOR STRESS PERIOD    1   TIME STEP  241
 SOLVING FOR ZETA FOR LAYER     1 ZONE     2

    4996 UPPER PART EQS.      4998 LOWER PART EQS.    BAND WIDTH + 1 =  101
 STRESS PERIOD=  1 TIMESTEP=241 LAYER=  1 ZONE=  2 ACTIVE CELLS= 9994 NUMBER OF EQUATIONS=    9994
 
 SOLVING FOR HEAD 

 NO OUTPUT CONTROL FOR STRESS PERIOD    1   TIME STEP  242
 SOLVING FOR ZETA FOR LAYER     1 ZONE     2

    4491 UPPER PART EQS.      4506 LOWER PART EQS.    BAND WIDTH + 1 =  110
 INSUFFICIENT MEMORY FOR DE4 SOLVER:
 MXBW MUST BE AT LEAST  110
 
 SOLVING FOR HEAD 

 NO OUTPUT CONTROL FOR STRESS PERIOD    1   TIME STEP  243
 SOLVING FOR ZETA FOR LAYER     1 ZONE     2

    4996 UPPER PART EQS.      4998 LOWER PART EQS.    BAND WIDTH + 1 =  101
 STRESS PERIOD=  1 TIMESTEP=243 LAYER=  1 ZONE=  2 ACTIVE CELLS= 9994 NUMBER OF EQUATIONS=    9994
 
 SOLVING FOR HEAD 

 NO OUTPUT CONTROL FOR STRESS PERIOD    1   TIME STEP  244
 SOLVING FOR ZETA FOR LAYER     1 ZONE     2

    4493 UPPER PART EQS.      4506 LOWER PART EQS.    BAND WIDTH + 1 =  109
 INSUFFICIENT MEMORY FOR DE4 SOLVER:
 MXBW MUST BE AT LEAST  109
 
 SOLVING FOR HEAD 

 NO OUTPUT CONTROL FOR STRESS PERIOD    1   TIME STEP  245
 SOLVING FOR ZETA FOR LAYER     1 ZONE     2

    4996 UPPER PART EQS.      4998 LOWER PART EQS.    BAND WIDTH + 1 =  101
 STRESS PERIOD=  1 TIMESTEP=245 LAYER=  1 ZONE=  2 ACTIVE CELLS= 9994 NUMBER OF EQUATIONS=    9994
 
 SOLVING FOR HEAD 

 NO OUTPUT CONTROL FOR STRESS PERIOD    1   TIME STEP  246
 SOLVING FOR ZETA FOR LAYER     1 ZONE     2

    4492 UPPER PART EQS.      4505 LOWER PART EQS.    BAND WIDTH + 1 =  108
 INSUFFICIENT MEMORY FOR DE4 SOLVER:
 MXBW MUST BE AT LEAST  108
 
 SOLVING FOR HEAD 

 NO OUTPUT CONTROL FOR STRESS PERIOD    1   TIME STEP  247
 SOLVING FOR ZETA FOR LAYER     1 ZONE     2

    4995 UPPER PART EQS.      4998 LOWER PART EQS.    BAND WIDTH + 1 =  101
 STRESS PERIOD=  1 TIMESTEP=247 LAYER=  1 ZONE=  2 ACTIVE CELLS= 9993 NUMBER OF EQUATIONS=    9993
 
 SOLVING FOR HEAD 

 NO OUTPUT CONTROL FOR STRESS PERIOD    1   TIME STEP  248
 SOLVING FOR ZETA FOR LAYER     1 ZONE     2

    4492 UPPER PART EQS.      4504 LOWER PART EQS.    BAND WIDTH + 1 =  106
 INSUFFICIENT MEMORY FOR DE4 SOLVER:
 MXBW MUST BE AT LEAST  106
 
 SOLVING FOR HEAD 

 NO OUTPUT CONTROL FOR STRESS PERIOD    1   TIME STEP  249
 SOLVING FOR ZETA FOR LAYER     1 ZONE     2

    4995 UPPER PART EQS.      4997 LOWER PART EQS.    BAND WIDTH + 1 =  101
 STRESS PERIOD=  1 TIMESTEP=249 LAYER=  1 ZONE=  2 ACTIVE CELLS= 9992 NUMBER OF EQUATIONS=    9992
 
 SOLVING FOR HEAD 

 NO OUTPUT CONTROL FOR STRESS PERIOD    1   TIME STEP  250
 SOLVING FOR ZETA FOR LAYER     1 ZONE     2

    4491 UPPER PART EQS.      4505 LOWER PART EQS.    BAND WIDTH + 1 =  109
 INSUFFICIENT MEMORY FOR DE4 SOLVER:
 MXBW MUST BE AT LEAST  109
 
 SOLVING FOR HEAD 

 NO OUTPUT CONTROL FOR STRESS PERIOD    1   TIME STEP  251
 SOLVING FOR ZETA FOR LAYER     1 ZONE     2

    4995 UPPER PART EQS.      4998 LOWER PART EQS.    BAND WIDTH + 1 =  101
 STRESS PERIOD=  1 TIMESTEP=251 LAYER=  1 ZONE=  2 ACTIVE CELLS= 9993 NUMBER OF EQUATIONS=    9993
 
 SOLVING FOR HEAD 

 NO OUTPUT CONTROL FOR STRESS PERIOD    1   TIME STEP  252
 SOLVING FOR ZETA FOR LAYER     1 ZONE     2

    4492 UPPER PART EQS.      4507 LOWER PART EQS.    BAND WIDTH + 1 =  110
 INSUFFICIENT MEMORY FOR DE4 SOLVER:
 MXBW MUST BE AT LEAST  110
 
 SOLVING FOR HEAD 

 NO OUTPUT CONTROL FOR STRESS PERIOD    1   TIME STEP  253
 SOLVING FOR ZETA FOR LAYER     1 ZONE     2

    4995 UPPER PART EQS.      4998 LOWER PART EQS.    BAND WIDTH + 1 =  101
 STRESS PERIOD=  1 TIMESTEP=253 LAYER=  1 ZONE=  2 ACTIVE CELLS= 9993 NUMBER OF EQUATIONS=    9993
 
 SOLVING FOR HEAD 

 NO OUTPUT CONTROL FOR STRESS PERIOD    1   TIME STEP  254
 SOLVING FOR ZETA FOR LAYER     1 ZONE     2

    4492 UPPER PART EQS.      4508 LOWER PART EQS.    BAND WIDTH + 1 =  110
 INSUFFICIENT MEMORY FOR DE4 SOLVER:
 MXBW MUST BE AT LEAST  110
 
 SOLVING FOR HEAD 

 NO OUTPUT CONTROL FOR STRESS PERIOD    1   TIME STEP  255
 SOLVING FOR ZETA FOR LAYER     1 ZONE     2

    4995 UPPER PART EQS.      4998 LOWER PART EQS.    BAND WIDTH + 1 =  101
 STRESS PERIOD=  1 TIMESTEP=255 LAYER=  1 ZONE=  2 ACTIVE CELLS= 9993 NUMBER OF EQUATIONS=    9993
 
 SOLVING FOR HEAD 

 NO OUTPUT CONTROL FOR STRESS PERIOD    1   TIME STEP  256
 SOLVING FOR ZETA FOR LAYER     1 ZONE     2

    4494 UPPER PART EQS.      4507 LOWER PART EQS.    BAND WIDTH + 1 =  106
 INSUFFICIENT MEMORY FOR DE4 SOLVER:
 MXBW MUST BE AT LEAST  106
 
 SOLVING FOR HEAD 

 NO OUTPUT CONTROL FOR STRESS PERIOD    1   TIME STEP  257
 SOLVING FOR ZETA FOR LAYER     1 ZONE     2

    4995 UPPER PART EQS.      4998 LOWER PART EQS.    BAND WIDTH + 1 =  101
 STRESS PERIOD=  1 TIMESTEP=257 LAYER=  1 ZONE=  2 ACTIVE CELLS= 9993 NUMBER OF EQUATIONS=    9993
 
 SOLVING FOR HEAD 

 NO OUTPUT CONTROL FOR STRESS PERIOD    1   TIME STEP  258
 SOLVING FOR ZETA FOR LAYER     1 ZONE     2

    4495 UPPER PART EQS.      4510 LOWER PART EQS.    BAND WIDTH + 1 =  107
 INSUFFICIENT MEMORY FOR DE4 SOLVER:
 MXBW MUST BE AT LEAST  107
 
 SOLVING FOR HEAD 

 NO OUTPUT CONTROL FOR STRESS PERIOD    1   TIME STEP  259
 SOLVING FOR ZETA FOR LAYER     1 ZONE     2

    4995 UPPER PART EQS.      4998 LOWER PART EQS.    BAND WIDTH + 1 =  101
 STRESS PERIOD=  1 TIMESTEP=259 LAYER=  1 ZONE=  2 ACTIVE CELLS= 9993 NUMBER OF EQUATIONS=    9993
 
 SOLVING FOR HEAD 

 NO OUTPUT CONTROL FOR STRESS PERIOD    1   TIME STEP  260
 SOLVING FOR ZETA FOR LAYER     1 ZONE     2

    4493 UPPER PART EQS.      4511 LOWER PART EQS.    BAND WIDTH + 1 =  109
 INSUFFICIENT MEMORY FOR DE4 SOLVER:
 MXBW MUST BE AT LEAST  109
 
 SOLVING FOR HEAD 

 NO OUTPUT CONTROL FOR STRESS PERIOD    1   TIME STEP  261
 SOLVING FOR ZETA FOR LAYER     1 ZONE     2

    4995 UPPER PART EQS.      4998 LOWER PART EQS.    BAND WIDTH + 1 =  101
 STRESS PERIOD=  1 TIMESTEP=261 LAYER=  1 ZONE=  2 ACTIVE CELLS= 9993 NUMBER OF EQUATIONS=    9993
 
 SOLVING FOR HEAD 

 NO OUTPUT CONTROL FOR STRESS PERIOD    1   TIME STEP  262
 SOLVING FOR ZETA FOR LAYER     1 ZONE     2

    4491 UPPER PART EQS.      4511 LOWER PART EQS.    BAND WIDTH + 1 =  111
 INSUFFICIENT MEMORY FOR DE4 SOLVER:
 MXBW MUST BE AT LEAST  111
 
 SOLVING FOR HEAD 

 NO OUTPUT CONTROL FOR STRESS PERIOD    1   TIME STEP  263
 SOLVING FOR ZETA FOR LAYER     1 ZONE     2

    4995 UPPER PART EQS.      4998 LOWER PART EQS.    BAND WIDTH + 1 =  101
 STRESS PERIOD=  1 TIMESTEP=263 LAYER=  1 ZONE=  2 ACTIVE CELLS= 9993 NUMBER OF EQUATIONS=    9993
 
 SOLVING FOR HEAD 

 NO OUTPUT CONTROL FOR STRESS PERIOD    1   TIME STEP  264
 SOLVING FOR ZETA FOR LAYER     1 ZONE     2

    4491 UPPER PART EQS.      4512 LOWER PART EQS.    BAND WIDTH + 1 =  113
 INSUFFICIENT MEMORY FOR DE4 SOLVER:
 MXBW MUST BE AT LEAST  113
 
 SOLVING FOR HEAD 

 NO OUTPUT CONTROL FOR STRESS PERIOD    1   TIME STEP  265
 SOLVING FOR ZETA FOR LAYER     1 ZONE     2

    4997 UPPER PART EQS.      4998 LOWER PART EQS.    BAND WIDTH + 1 =  101
 STRESS PERIOD=  1 TIMESTEP=265 LAYER=  1 ZONE=  2 ACTIVE CELLS= 9995 NUMBER OF EQUATIONS=    9995
 
 SOLVING FOR HEAD 

 NO OUTPUT CONTROL FOR STRESS PERIOD    1   TIME STEP  266
 SOLVING FOR ZETA FOR LAYER     1 ZONE     2

    4496 UPPER PART EQS.      4512 LOWER PART EQS.    BAND WIDTH + 1 =  110
 INSUFFICIENT MEMORY FOR DE4 SOLVER:
 MXBW MUST BE AT LEAST  110
 
 SOLVING FOR HEAD 

 NO OUTPUT CONTROL FOR STRESS PERIOD    1   TIME STEP  267
 SOLVING FOR ZETA FOR LAYER     1 ZONE     2

    4996 UPPER PART EQS.      4998 LOWER PART EQS.    BAND WIDTH + 1 =  101
 STRESS PERIOD=  1 TIMESTEP=267 LAYER=  1 ZONE=  2 ACTIVE CELLS= 9994 NUMBER OF EQUATIONS=    9994
 
 SOLVING FOR HEAD 

 NO OUTPUT CONTROL FOR STRESS PERIOD    1   TIME STEP  268
 SOLVING FOR ZETA FOR LAYER     1 ZONE     2

    4498 UPPER PART EQS.      4509 LOWER PART EQS.    BAND WIDTH + 1 =  104
 STRESS PERIOD=  1 TIMESTEP=268 LAYER=  1 ZONE=  2 ACTIVE CELLS= 9007 NUMBER OF EQUATIONS=    9007
 
 SOLVING FOR HEAD 

 NO OUTPUT CONTROL FOR STRESS PERIOD    1   TIME STEP  269
 SOLVING FOR ZETA FOR LAYER     1 ZONE     2

    4995 UPPER PART EQS.      4998 LOWER PART EQS.    BAND WIDTH + 1 =  101
 STRESS PERIOD=  1 TIMESTEP=269 LAYER=  1 ZONE=  2 ACTIVE CELLS= 9993 NUMBER OF EQUATIONS=    9993
 
 SOLVING FOR HEAD 

 NO OUTPUT CONTROL FOR STRESS PERIOD    1   TIME STEP  270
 SOLVING FOR ZETA FOR LAYER     1 ZONE     2

    4503 UPPER PART EQS.      4512 LOWER PART EQS.    BAND WIDTH + 1 =  104
 STRESS PERIOD=  1 TIMESTEP=270 LAYER=  1 ZONE=  2 ACTIVE CELLS= 9015 NUMBER OF EQUATIONS=    9015
 
 SOLVING FOR HEAD 

 NO OUTPUT CONTROL FOR STRESS PERIOD    1   TIME STEP  271
 SOLVING FOR ZETA FOR LAYER     1 ZONE     2

    4992 UPPER PART EQS.      4995 LOWER PART EQS.    BAND WIDTH + 1 =  101
 STRESS PERIOD=  1 TIMESTEP=271 LAYER=  1 ZONE=  2 ACTIVE CELLS= 9987 NUMBER OF EQUATIONS=    9987
 
 SOLVING FOR HEAD 

 NO OUTPUT CONTROL FOR STRESS PERIOD    1   TIME STEP  272
 SOLVING FOR ZETA FOR LAYER     1 ZONE     2

    4504 UPPER PART EQS.      4512 LOWER PART EQS.    BAND WIDTH + 1 =  103
 STRESS PERIOD=  1 TIMESTEP=272 LAYER=  1 ZONE=  2 ACTIVE CELLS= 9016 NUMBER OF EQUATIONS=    9016
 
 SOLVING FOR HEAD 

 NO OUTPUT CONTROL FOR STRESS PERIOD    1   TIME STEP  273
 SOLVING FOR ZETA FOR LAYER     1 ZONE     2

    4986 UPPER PART EQS.      4994 LOWER PART EQS.    BAND WIDTH + 1 =  102
 STRESS PERIOD=  1 TIMESTEP=273 LAYER=  1 ZONE=  2 ACTIVE CELLS= 9980 NUMBER OF EQUATIONS=    9980
 
 SOLVING FOR HEAD 

 NO OUTPUT CONTROL FOR STRESS PERIOD    1   TIME STEP  274
 SOLVING FOR ZETA FOR LAYER     1 ZONE     2

    4504 UPPER PART EQS.      4512 LOWER PART EQS.    BAND WIDTH + 1 =  105
 STRESS PERIOD=  1 TIMESTEP=274 LAYER=  1 ZONE=  2 ACTIVE CELLS= 9016 NUMBER OF EQUATIONS=    9016
 
 SOLVING FOR HEAD 

 NO OUTPUT CONTROL FOR STRESS PERIOD    1   TIME STEP  275
 SOLVING FOR ZETA FOR LAYER     1 ZONE     2

    4986 UPPER PART EQS.      4991 LOWER PART EQS.    BAND WIDTH + 1 =  101
 STRESS PERIOD=  1 TIMESTEP=275 LAYER=  1 ZONE=  2 ACTIVE CELLS= 9977 NUMBER OF EQUATIONS=    9977
 
 SOLVING FOR HEAD 

 NO OUTPUT CONTROL FOR STRESS PERIOD    1   TIME STEP  276
 SOLVING FOR ZETA FOR LAYER     1 ZONE     2

    4504 UPPER PART EQS.      4516 LOWER PART EQS.    BAND WIDTH + 1 =  109
 INSUFFICIENT MEMORY FOR DE4 SOLVER:
 MXBW MUST BE AT LEAST  109
 
 SOLVING FOR HEAD 

 NO OUTPUT CONTROL FOR STRESS PERIOD    1   TIME STEP  277
 SOLVING FOR ZETA FOR LAYER     1 ZONE     2

    4997 UPPER PART EQS.      4998 LOWER PART EQS.    BAND WIDTH + 1 =  101
 STRESS PERIOD=  1 TIMESTEP=277 LAYER=  1 ZONE=  2 ACTIVE CELLS= 9995 NUMBER OF EQUATIONS=    9995
 
 SOLVING FOR HEAD 

 NO OUTPUT CONTROL FOR STRESS PERIOD    1   TIME STEP  278
 SOLVING FOR ZETA FOR LAYER     1 ZONE     2

    4494 UPPER PART EQS.      4506 LOWER PART EQS.    BAND WIDTH + 1 =  111
 INSUFFICIENT MEMORY FOR DE4 SOLVER:
 MXBW MUST BE AT LEAST  111
 
 SOLVING FOR HEAD 

 NO OUTPUT CONTROL FOR STRESS PERIOD    1   TIME STEP  279
 SOLVING FOR ZETA FOR LAYER     1 ZONE     2

    4997 UPPER PART EQS.      4998 LOWER PART EQS.    BAND WIDTH + 1 =  101
 STRESS PERIOD=  1 TIMESTEP=279 LAYER=  1 ZONE=  2 ACTIVE CELLS= 9995 NUMBER OF EQUATIONS=    9995
 
 SOLVING FOR HEAD 

 NO OUTPUT CONTROL FOR STRESS PERIOD    1   TIME STEP  280
 SOLVING FOR ZETA FOR LAYER     1 ZONE     2

    4494 UPPER PART EQS.      4503 LOWER PART EQS.    BAND WIDTH + 1 =  108
 INSUFFICIENT MEMORY FOR DE4 SOLVER:
 MXBW MUST BE AT LEAST  108
 
 SOLVING FOR HEAD 

 NO OUTPUT CONTROL FOR STRESS PERIOD    1   TIME STEP  281
 SOLVING FOR ZETA FOR LAYER     1 ZONE     2

    4997 UPPER PART EQS.      4998 LOWER PART EQS.    BAND WIDTH + 1 =  101
 STRESS PERIOD=  1 TIMESTEP=281 LAYER=  1 ZONE=  2 ACTIVE CELLS= 9995 NUMBER OF EQUATIONS=    9995
 
 SOLVING FOR HEAD 

 NO OUTPUT CONTROL FOR STRESS PERIOD    1   TIME STEP  282
 SOLVING FOR ZETA FOR LAYER     1 ZONE     2

    4495 UPPER PART EQS.      4503 LOWER PART EQS.    BAND WIDTH + 1 =  109
 INSUFFICIENT MEMORY FOR DE4 SOLVER:
 MXBW MUST BE AT LEAST  109
 
 SOLVING FOR HEAD 

 NO OUTPUT CONTROL FOR STRESS PERIOD    1   TIME STEP  283
 SOLVING FOR ZETA FOR LAYER     1 ZONE     2

    4997 UPPER PART EQS.      4997 LOWER PART EQS.    BAND WIDTH + 1 =  101
 STRESS PERIOD=  1 TIMESTEP=283 LAYER=  1 ZONE=  2 ACTIVE CELLS= 9994 NUMBER OF EQUATIONS=    9994
 
 SOLVING FOR HEAD 

 NO OUTPUT CONTROL FOR STRESS PERIOD    1   TIME STEP  284
 SOLVING FOR ZETA FOR LAYER     1 ZONE     2

    4490 UPPER PART EQS.      4500 LOWER PART EQS.    BAND WIDTH + 1 =  110
 INSUFFICIENT MEMORY FOR DE4 SOLVER:
 MXBW MUST BE AT LEAST  110
 
 SOLVING FOR HEAD 

 NO OUTPUT CONTROL FOR STRESS PERIOD    1   TIME STEP  285
 SOLVING FOR ZETA FOR LAYER     1 ZONE     2

    4997 UPPER PART EQS.      4998 LOWER PART EQS.    BAND WIDTH + 1 =  101
 STRESS PERIOD=  1 TIMESTEP=285 LAYER=  1 ZONE=  2 ACTIVE CELLS= 9995 NUMBER OF EQUATIONS=    9995
 
 SOLVING FOR HEAD 

 NO OUTPUT CONTROL FOR STRESS PERIOD    1   TIME STEP  286
 SOLVING FOR ZETA FOR LAYER     1 ZONE     2

    4488 UPPER PART EQS.      4500 LOWER PART EQS.    BAND WIDTH + 1 =  112
 INSUFFICIENT MEMORY FOR DE4 SOLVER:
 MXBW MUST BE AT LEAST  112
 
 SOLVING FOR HEAD 

 NO OUTPUT CONTROL FOR STRESS PERIOD    1   TIME STEP  287
 SOLVING FOR ZETA FOR LAYER     1 ZONE     2

    4997 UPPER PART EQS.      4998 LOWER PART EQS.    BAND WIDTH + 1 =  101
 STRESS PERIOD=  1 TIMESTEP=287 LAYER=  1 ZONE=  2 ACTIVE CELLS= 9995 NUMBER OF EQUATIONS=    9995
 
 SOLVING FOR HEAD 

 NO OUTPUT CONTROL FOR STRESS PERIOD    1   TIME STEP  288
 SOLVING FOR ZETA FOR LAYER     1 ZONE     2

    4487 UPPER PART EQS.      4499 LOWER PART EQS.    BAND WIDTH + 1 =  113
 INSUFFICIENT MEMORY FOR DE4 SOLVER:
 MXBW MUST BE AT LEAST  113
 
 SOLVING FOR HEAD 

 NO OUTPUT CONTROL FOR STRESS PERIOD    1   TIME STEP  289
 SOLVING FOR ZETA FOR LAYER     1 ZONE     2

    4997 UPPER PART EQS.      4998 LOWER PART EQS.    BAND WIDTH + 1 =  101
 STRESS PERIOD=  1 TIMESTEP=289 LAYER=  1 ZONE=  2 ACTIVE CELLS= 9995 NUMBER OF EQUATIONS=    9995
 
 SOLVING FOR HEAD 

 NO OUTPUT CONTROL FOR STRESS PERIOD    1   TIME STEP  290
 SOLVING FOR ZETA FOR LAYER     1 ZONE     2

    4488 UPPER PART EQS.      4500 LOWER PART EQS.    BAND WIDTH + 1 =  114
 INSUFFICIENT MEMORY FOR DE4 SOLVER:
 MXBW MUST BE AT LEAST  114
 
 SOLVING FOR HEAD 

 NO OUTPUT CONTROL FOR STRESS PERIOD    1   TIME STEP  291
 SOLVING FOR ZETA FOR LAYER     1 ZONE     2

    4997 UPPER PART EQS.      4998 LOWER PART EQS.    BAND WIDTH + 1 =  101
 STRESS PERIOD=  1 TIMESTEP=291 LAYER=  1 ZONE=  2 ACTIVE CELLS= 9995 NUMBER OF EQUATIONS=    9995
 
 SOLVING FOR HEAD 

 NO OUTPUT CONTROL FOR STRESS PERIOD    1   TIME STEP  292
 SOLVING FOR ZETA FOR LAYER     1 ZONE     2

    4486 UPPER PART EQS.      4499 LOWER PART EQS.    BAND WIDTH + 1 =  117
 INSUFFICIENT MEMORY FOR DE4 SOLVER:
 MXBW MUST BE AT LEAST  117
 
 SOLVING FOR HEAD 

 NO OUTPUT CONTROL FOR STRESS PERIOD    1   TIME STEP  293
 SOLVING FOR ZETA FOR LAYER     1 ZONE     2

    4997 UPPER PART EQS.      4998 LOWER PART EQS.    BAND WIDTH + 1 =  101
 STRESS PERIOD=  1 TIMESTEP=293 LAYER=  1 ZONE=  2 ACTIVE CELLS= 9995 NUMBER OF EQUATIONS=    9995
 
 SOLVING FOR HEAD 

 NO OUTPUT CONTROL FOR STRESS PERIOD    1   TIME STEP  294
 SOLVING FOR ZETA FOR LAYER     1 ZONE     2

    4486 UPPER PART EQS.      4496 LOWER PART EQS.    BAND WIDTH + 1 =  115
 INSUFFICIENT MEMORY FOR DE4 SOLVER:
 MXBW MUST BE AT LEAST  115
 
 SOLVING FOR HEAD 

 NO OUTPUT CONTROL FOR STRESS PERIOD    1   TIME STEP  295
 SOLVING FOR ZETA FOR LAYER     1 ZONE     2

    4997 UPPER PART EQS.      4998 LOWER PART EQS.    BAND WIDTH + 1 =  101
 STRESS PERIOD=  1 TIMESTEP=295 LAYER=  1 ZONE=  2 ACTIVE CELLS= 9995 NUMBER OF EQUATIONS=    9995
 
 SOLVING FOR HEAD 

 NO OUTPUT CONTROL FOR STRESS PERIOD    1   TIME STEP  296
 SOLVING FOR ZETA FOR LAYER     1 ZONE     2

    4490 UPPER PART EQS.      4495 LOWER PART EQS.    BAND WIDTH + 1 =  113
 INSUFFICIENT MEMORY FOR DE4 SOLVER:
 MXBW MUST BE AT LEAST  113
 
 SOLVING FOR HEAD 

 NO OUTPUT CONTROL FOR STRESS PERIOD    1   TIME STEP  297
 SOLVING FOR ZETA FOR LAYER     1 ZONE     2

    4997 UPPER PART EQS.      4998 LOWER PART EQS.    BAND WIDTH + 1 =  101
 STRESS PERIOD=  1 TIMESTEP=297 LAYER=  1 ZONE=  2 ACTIVE CELLS= 9995 NUMBER OF EQUATIONS=    9995
 
 SOLVING FOR HEAD 

 NO OUTPUT CONTROL FOR STRESS PERIOD    1   TIME STEP  298
 SOLVING FOR ZETA FOR LAYER     1 ZONE     2

    4486 UPPER PART EQS.      4496 LOWER PART EQS.    BAND WIDTH + 1 =  119
 INSUFFICIENT MEMORY FOR DE4 SOLVER:
 MXBW MUST BE AT LEAST  119
 
 SOLVING FOR HEAD 

 NO OUTPUT CONTROL FOR STRESS PERIOD    1   TIME STEP  299
 SOLVING FOR ZETA FOR LAYER     1 ZONE     2

    4996 UPPER PART EQS.      4998 LOWER PART EQS.    BAND WIDTH + 1 =  101
 STRESS PERIOD=  1 TIMESTEP=299 LAYER=  1 ZONE=  2 ACTIVE CELLS= 9994 NUMBER OF EQUATIONS=    9994
 
 SOLVING FOR HEAD 

 NO OUTPUT CONTROL FOR STRESS PERIOD    1   TIME STEP  300
 SOLVING FOR ZETA FOR LAYER     1 ZONE     2

    4487 UPPER PART EQS.      4494 LOWER PART EQS.    BAND WIDTH + 1 =  117
 INSUFFICIENT MEMORY FOR DE4 SOLVER:
 MXBW MUST BE AT LEAST  117
 
 SOLVING FOR HEAD 

 NO OUTPUT CONTROL FOR STRESS PERIOD    1   TIME STEP  301
 SOLVING FOR ZETA FOR LAYER     1 ZONE     2

    4997 UPPER PART EQS.      4998 LOWER PART EQS.    BAND WIDTH + 1 =  101
 STRESS PERIOD=  1 TIMESTEP=301 LAYER=  1 ZONE=  2 ACTIVE CELLS= 9995 NUMBER OF EQUATIONS=    9995
 
 SOLVING FOR HEAD 

 NO OUTPUT CONTROL FOR STRESS PERIOD    1   TIME STEP  302
 SOLVING FOR ZETA FOR LAYER     1 ZONE     2

    4482 UPPER PART EQS.      4496 LOWER PART EQS.    BAND WIDTH + 1 =  122
 INSUFFICIENT MEMORY FOR DE4 SOLVER:
 MXBW MUST BE AT LEAST  122
 
 SOLVING FOR HEAD 

 NO OUTPUT CONTROL FOR STRESS PERIOD    1   TIME STEP  303
 SOLVING FOR ZETA FOR LAYER     1 ZONE     2

    4997 UPPER PART EQS.      4997 LOWER PART EQS.    BAND WIDTH + 1 =  101
 STRESS PERIOD=  1 TIMESTEP=303 LAYER=  1 ZONE=  2 ACTIVE CELLS= 9994 NUMBER OF EQUATIONS=    9994
 
 SOLVING FOR HEAD 

 NO OUTPUT CONTROL FOR STRESS PERIOD    1   TIME STEP  304
 SOLVING FOR ZETA FOR LAYER     1 ZONE     2

    4482 UPPER PART EQS.      4495 LOWER PART EQS.    BAND WIDTH + 1 =  123
 INSUFFICIENT MEMORY FOR DE4 SOLVER:
 MXBW MUST BE AT LEAST  123
 
 SOLVING FOR HEAD 

 NO OUTPUT CONTROL FOR STRESS PERIOD    1   TIME STEP  305
 SOLVING FOR ZETA FOR LAYER     1 ZONE     2

    4997 UPPER PART EQS.      4996 LOWER PART EQS.    BAND WIDTH + 1 =  101
 STRESS PERIOD=  1 TIMESTEP=305 LAYER=  1 ZONE=  2 ACTIVE CELLS= 9993 NUMBER OF EQUATIONS=    9993
 
 SOLVING FOR HEAD 

 NO OUTPUT CONTROL FOR STRESS PERIOD    1   TIME STEP  306
 SOLVING FOR ZETA FOR LAYER     1 ZONE     2

    4480 UPPER PART EQS.      4494 LOWER PART EQS.    BAND WIDTH + 1 =  123
 INSUFFICIENT MEMORY FOR DE4 SOLVER:
 MXBW MUST BE AT LEAST  123
 
 SOLVING FOR HEAD 

 NO OUTPUT CONTROL FOR STRESS PERIOD    1   TIME STEP  307
 SOLVING FOR ZETA FOR LAYER     1 ZONE     2

    4997 UPPER PART EQS.      4996 LOWER PART EQS.    BAND WIDTH + 1 =  101
 STRESS PERIOD=  1 TIMESTEP=307 LAYER=  1 ZONE=  2 ACTIVE CELLS= 9993 NUMBER OF EQUATIONS=    9993
 
 SOLVING FOR HEAD 

 NO OUTPUT CONTROL FOR STRESS PERIOD    1   TIME STEP  308
 SOLVING FOR ZETA FOR LAYER     1 ZONE     2

    4478 UPPER PART EQS.      4491 LOWER PART EQS.    BAND WIDTH + 1 =  119
 INSUFFICIENT MEMORY FOR DE4 SOLVER:
 MXBW MUST BE AT LEAST  119
 
 SOLVING FOR HEAD 

 NO OUTPUT CONTROL FOR STRESS PERIOD    1   TIME STEP  309
 SOLVING FOR ZETA FOR LAYER     1 ZONE     2

    4997 UPPER PART EQS.      4995 LOWER PART EQS.    BAND WIDTH + 1 =  101
 STRESS PERIOD=  1 TIMESTEP=309 LAYER=  1 ZONE=  2 ACTIVE CELLS= 9992 NUMBER OF EQUATIONS=    9992
 
 SOLVING FOR HEAD 

 NO OUTPUT CONTROL FOR STRESS PERIOD    1   TIME STEP  310
 SOLVING FOR ZETA FOR LAYER     1 ZONE     2

    4480 UPPER PART EQS.      4492 LOWER PART EQS.    BAND WIDTH + 1 =  119
 INSUFFICIENT MEMORY FOR DE4 SOLVER:
 MXBW MUST BE AT LEAST  119
 
 SOLVING FOR HEAD 

 NO OUTPUT CONTROL FOR STRESS PERIOD    1   TIME STEP  311
 SOLVING FOR ZETA FOR LAYER     1 ZONE     2

    4997 UPPER PART EQS.      4996 LOWER PART EQS.    BAND WIDTH + 1 =  101
 STRESS PERIOD=  1 TIMESTEP=311 LAYER=  1 ZONE=  2 ACTIVE CELLS= 9993 NUMBER OF EQUATIONS=    9993
 
 SOLVING FOR HEAD 

 NO OUTPUT CONTROL FOR STRESS PERIOD    1   TIME STEP  312
 SOLVING FOR ZETA FOR LAYER     1 ZONE     2

    4479 UPPER PART EQS.      4495 LOWER PART EQS.    BAND WIDTH + 1 =  122
 INSUFFICIENT MEMORY FOR DE4 SOLVER:
 MXBW MUST BE AT LEAST  122
 
 SOLVING FOR HEAD 

 NO OUTPUT CONTROL FOR STRESS PERIOD    1   TIME STEP  313
 SOLVING FOR ZETA FOR LAYER     1 ZONE     2

    4997 UPPER PART EQS.      4996 LOWER PART EQS.    BAND WIDTH + 1 =  101
 STRESS PERIOD=  1 TIMESTEP=313 LAYER=  1 ZONE=  2 ACTIVE CELLS= 9993 NUMBER OF EQUATIONS=    9993
 
 SOLVING FOR HEAD 

 NO OUTPUT CONTROL FOR STRESS PERIOD    1   TIME STEP  314
 SOLVING FOR ZETA FOR LAYER     1 ZONE     2

    4481 UPPER PART EQS.      4495 LOWER PART EQS.    BAND WIDTH + 1 =  120
 INSUFFICIENT MEMORY FOR DE4 SOLVER:
 MXBW MUST BE AT LEAST  120
 
 SOLVING FOR HEAD 

 NO OUTPUT CONTROL FOR STRESS PERIOD    1   TIME STEP  315
 SOLVING FOR ZETA FOR LAYER     1 ZONE     2

    4997 UPPER PART EQS.      4995 LOWER PART EQS.    BAND WIDTH + 1 =  101
 STRESS PERIOD=  1 TIMESTEP=315 LAYER=  1 ZONE=  2 ACTIVE CELLS= 9992 NUMBER OF EQUATIONS=    9992
 
 SOLVING FOR HEAD 

 NO OUTPUT CONTROL FOR STRESS PERIOD    1   TIME STEP  316
 SOLVING FOR ZETA FOR LAYER     1 ZONE     2

    4480 UPPER PART EQS.      4497 LOWER PART EQS.    BAND WIDTH + 1 =  118
 INSUFFICIENT MEMORY FOR DE4 SOLVER:
 MXBW MUST BE AT LEAST  118
 
 SOLVING FOR HEAD 

 NO OUTPUT CONTROL FOR STRESS PERIOD    1   TIME STEP  317
 SOLVING FOR ZETA FOR LAYER     1 ZONE     2

    4997 UPPER PART EQS.      4996 LOWER PART EQS.    BAND WIDTH + 1 =  101
 STRESS PERIOD=  1 TIMESTEP=317 LAYER=  1 ZONE=  2 ACTIVE CELLS= 9993 NUMBER OF EQUATIONS=    9993
 
 SOLVING FOR HEAD 

 NO OUTPUT CONTROL FOR STRESS PERIOD    1   TIME STEP  318
 SOLVING FOR ZETA FOR LAYER     1 ZONE     2

    4476 UPPER PART EQS.      4498 LOWER PART EQS.    BAND WIDTH + 1 =  119
 INSUFFICIENT MEMORY FOR DE4 SOLVER:
 MXBW MUST BE AT LEAST  119
 
 SOLVING FOR HEAD 

 NO OUTPUT CONTROL FOR STRESS PERIOD    1   TIME STEP  319
 SOLVING FOR ZETA FOR LAYER     1 ZONE     2

    4997 UPPER PART EQS.      4996 LOWER PART EQS.    BAND WIDTH + 1 =  101
 STRESS PERIOD=  1 TIMESTEP=319 LAYER=  1 ZONE=  2 ACTIVE CELLS= 9993 NUMBER OF EQUATIONS=    9993
 
 SOLVING FOR HEAD 

 NO OUTPUT CONTROL FOR STRESS PERIOD    1   TIME STEP  320
 SOLVING FOR ZETA FOR LAYER     1 ZONE     2

    4476 UPPER PART EQS.      4503 LOWER PART EQS.    BAND WIDTH + 1 =  121
 INSUFFICIENT MEMORY FOR DE4 SOLVER:
 MXBW MUST BE AT LEAST  121
 
 SOLVING FOR HEAD 

 NO OUTPUT CONTROL FOR STRESS PERIOD    1   TIME STEP  321
 SOLVING FOR ZETA FOR LAYER     1 ZONE     2

    4997 UPPER PART EQS.      4996 LOWER PART EQS.    BAND WIDTH + 1 =  101
 STRESS PERIOD=  1 TIMESTEP=321 LAYER=  1 ZONE=  2 ACTIVE CELLS= 9993 NUMBER OF EQUATIONS=    9993
 
 SOLVING FOR HEAD 

 NO OUTPUT CONTROL FOR STRESS PERIOD    1   TIME STEP  322
 SOLVING FOR ZETA FOR LAYER     1 ZONE     2

    4475 UPPER PART EQS.      4501 LOWER PART EQS.    BAND WIDTH + 1 =  121
 INSUFFICIENT MEMORY FOR DE4 SOLVER:
 MXBW MUST BE AT LEAST  121
 
 SOLVING FOR HEAD 

 NO OUTPUT CONTROL FOR STRESS PERIOD    1   TIME STEP  323
 SOLVING FOR ZETA FOR LAYER     1 ZONE     2

    4997 UPPER PART EQS.      4996 LOWER PART EQS.    BAND WIDTH + 1 =  101
 STRESS PERIOD=  1 TIMESTEP=323 LAYER=  1 ZONE=  2 ACTIVE CELLS= 9993 NUMBER OF EQUATIONS=    9993
 
 SOLVING FOR HEAD 

 NO OUTPUT CONTROL FOR STRESS PERIOD    1   TIME STEP  324
 SOLVING FOR ZETA FOR LAYER     1 ZONE     2

    4474 UPPER PART EQS.      4503 LOWER PART EQS.    BAND WIDTH + 1 =  120
 INSUFFICIENT MEMORY FOR DE4 SOLVER:
 MXBW MUST BE AT LEAST  120
 
 SOLVING FOR HEAD 

 NO OUTPUT CONTROL FOR STRESS PERIOD    1   TIME STEP  325
 SOLVING FOR ZETA FOR LAYER     1 ZONE     2

    4997 UPPER PART EQS.      4995 LOWER PART EQS.    BAND WIDTH + 1 =  101
 STRESS PERIOD=  1 TIMESTEP=325 LAYER=  1 ZONE=  2 ACTIVE CELLS= 9992 NUMBER OF EQUATIONS=    9992
 
 SOLVING FOR HEAD 

 NO OUTPUT CONTROL FOR STRESS PERIOD    1   TIME STEP  326
 SOLVING FOR ZETA FOR LAYER     1 ZONE     2

    4472 UPPER PART EQS.      4505 LOWER PART EQS.    BAND WIDTH + 1 =  122
 INSUFFICIENT MEMORY FOR DE4 SOLVER:
 MXBW MUST BE AT LEAST  122
 
 SOLVING FOR HEAD 

 NO OUTPUT CONTROL FOR STRESS PERIOD    1   TIME STEP  327
 SOLVING FOR ZETA FOR LAYER     1 ZONE     2

    4997 UPPER PART EQS.      4996 LOWER PART EQS.    BAND WIDTH + 1 =  101
 STRESS PERIOD=  1 TIMESTEP=327 LAYER=  1 ZONE=  2 ACTIVE CELLS= 9993 NUMBER OF EQUATIONS=    9993
 
 SOLVING FOR HEAD 

 NO OUTPUT CONTROL FOR STRESS PERIOD    1   TIME STEP  328
 SOLVING FOR ZETA FOR LAYER     1 ZONE     2

    4473 UPPER PART EQS.      4506 LOWER PART EQS.    BAND WIDTH + 1 =  120
 INSUFFICIENT MEMORY FOR DE4 SOLVER:
 MXBW MUST BE AT LEAST  120
 
 SOLVING FOR HEAD 

 NO OUTPUT CONTROL FOR STRESS PERIOD    1   TIME STEP  329
 SOLVING FOR ZETA FOR LAYER     1 ZONE     2

    4997 UPPER PART EQS.      4996 LOWER PART EQS.    BAND WIDTH + 1 =  101
 STRESS PERIOD=  1 TIMESTEP=329 LAYER=  1 ZONE=  2 ACTIVE CELLS= 9993 NUMBER OF EQUATIONS=    9993
 
 SOLVING FOR HEAD 

 NO OUTPUT CONTROL FOR STRESS PERIOD    1   TIME STEP  330
 SOLVING FOR ZETA FOR LAYER     1 ZONE     2

    4474 UPPER PART EQS.      4507 LOWER PART EQS.    BAND WIDTH + 1 =  120
 INSUFFICIENT MEMORY FOR DE4 SOLVER:
 MXBW MUST BE AT LEAST  120
 
 SOLVING FOR HEAD 

 NO OUTPUT CONTROL FOR STRESS PERIOD    1   TIME STEP  331
 SOLVING FOR ZETA FOR LAYER     1 ZONE     2

    4997 UPPER PART EQS.      4996 LOWER PART EQS.    BAND WIDTH + 1 =  101
 STRESS PERIOD=  1 TIMESTEP=331 LAYER=  1 ZONE=  2 ACTIVE CELLS= 9993 NUMBER OF EQUATIONS=    9993
 
 SOLVING FOR HEAD 

 NO OUTPUT CONTROL FOR STRESS PERIOD    1   TIME STEP  332
 SOLVING FOR ZETA FOR LAYER     1 ZONE     2

    4474 UPPER PART EQS.      4508 LOWER PART EQS.    BAND WIDTH + 1 =  122
 INSUFFICIENT MEMORY FOR DE4 SOLVER:
 MXBW MUST BE AT LEAST  122
 
 SOLVING FOR HEAD 

 NO OUTPUT CONTROL FOR STRESS PERIOD    1   TIME STEP  333
 SOLVING FOR ZETA FOR LAYER     1 ZONE     2

    4997 UPPER PART EQS.      4996 LOWER PART EQS.    BAND WIDTH + 1 =  101
 STRESS PERIOD=  1 TIMESTEP=333 LAYER=  1 ZONE=  2 ACTIVE CELLS= 9993 NUMBER OF EQUATIONS=    9993
 
 SOLVING FOR HEAD 

 NO OUTPUT CONTROL FOR STRESS PERIOD    1   TIME STEP  334
 SOLVING FOR ZETA FOR LAYER     1 ZONE     2

    4474 UPPER PART EQS.      4509 LOWER PART EQS.    BAND WIDTH + 1 =  121
 INSUFFICIENT MEMORY FOR DE4 SOLVER:
 MXBW MUST BE AT LEAST  121
 
 SOLVING FOR HEAD 

 NO OUTPUT CONTROL FOR STRESS PERIOD    1   TIME STEP  335
 SOLVING FOR ZETA FOR LAYER     1 ZONE     2

    4997 UPPER PART EQS.      4996 LOWER PART EQS.    BAND WIDTH + 1 =  101
 STRESS PERIOD=  1 TIMESTEP=335 LAYER=  1 ZONE=  2 ACTIVE CELLS= 9993 NUMBER OF EQUATIONS=    9993
 
 SOLVING FOR HEAD 

 NO OUTPUT CONTROL FOR STRESS PERIOD    1   TIME STEP  336
 SOLVING FOR ZETA FOR LAYER     1 ZONE     2

    4474 UPPER PART EQS.      4508 LOWER PART EQS.    BAND WIDTH + 1 =  123
 INSUFFICIENT MEMORY FOR DE4 SOLVER:
 MXBW MUST BE AT LEAST  123
 
 SOLVING FOR HEAD 

 NO OUTPUT CONTROL FOR STRESS PERIOD    1   TIME STEP  337
 SOLVING FOR ZETA FOR LAYER     1 ZONE     2

    4997 UPPER PART EQS.      4996 LOWER PART EQS.    BAND WIDTH + 1 =  101
 STRESS PERIOD=  1 TIMESTEP=337 LAYER=  1 ZONE=  2 ACTIVE CELLS= 9993 NUMBER OF EQUATIONS=    9993
 
 SOLVING FOR HEAD 

 NO OUTPUT CONTROL FOR STRESS PERIOD    1   TIME STEP  338
 SOLVING FOR ZETA FOR LAYER     1 ZONE     2

    4474 UPPER PART EQS.      4511 LOWER PART EQS.    BAND WIDTH + 1 =  124
 INSUFFICIENT MEMORY FOR DE4 SOLVER:
 MXBW MUST BE AT LEAST  124
 
 SOLVING FOR HEAD 

 NO OUTPUT CONTROL FOR STRESS PERIOD    1   TIME STEP  339
 SOLVING FOR ZETA FOR LAYER     1 ZONE     2

    4997 UPPER PART EQS.      4996 LOWER PART EQS.    BAND WIDTH + 1 =  101
 STRESS PERIOD=  1 TIMESTEP=339 LAYER=  1 ZONE=  2 ACTIVE CELLS= 9993 NUMBER OF EQUATIONS=    9993
 
 SOLVING FOR HEAD 

 NO OUTPUT CONTROL FOR STRESS PERIOD    1   TIME STEP  340
 SOLVING FOR ZETA FOR LAYER     1 ZONE     2

    4472 UPPER PART EQS.      4512 LOWER PART EQS.    BAND WIDTH + 1 =  126
 INSUFFICIENT MEMORY FOR DE4 SOLVER:
 MXBW MUST BE AT LEAST  126
 
 SOLVING FOR HEAD 

 NO OUTPUT CONTROL FOR STRESS PERIOD    1   TIME STEP  341
 SOLVING FOR ZETA FOR LAYER     1 ZONE     2

    4997 UPPER PART EQS.      4996 LOWER PART EQS.    BAND WIDTH + 1 =  101
 STRESS PERIOD=  1 TIMESTEP=341 LAYER=  1 ZONE=  2 ACTIVE CELLS= 9993 NUMBER OF EQUATIONS=    9993
 
 SOLVING FOR HEAD 

 NO OUTPUT CONTROL FOR STRESS PERIOD    1   TIME STEP  342
 SOLVING FOR ZETA FOR LAYER     1 ZONE     2

    4472 UPPER PART EQS.      4510 LOWER PART EQS.    BAND WIDTH + 1 =  124
 INSUFFICIENT MEMORY FOR DE4 SOLVER:
 MXBW MUST BE AT LEAST  124
 
 SOLVING FOR HEAD 

 NO OUTPUT CONTROL FOR STRESS PERIOD    1   TIME STEP  343
 SOLVING FOR ZETA FOR LAYER     1 ZONE     2

    4997 UPPER PART EQS.      4996 LOWER PART EQS.    BAND WIDTH + 1 =  101
 STRESS PERIOD=  1 TIMESTEP=343 LAYER=  1 ZONE=  2 ACTIVE CELLS= 9993 NUMBER OF EQUATIONS=    9993
 
 SOLVING FOR HEAD 

 NO OUTPUT CONTROL FOR STRESS PERIOD    1   TIME STEP  344
 SOLVING FOR ZETA FOR LAYER     1 ZONE     2

    4474 UPPER PART EQS.      4511 LOWER PART EQS.    BAND WIDTH + 1 =  123
 INSUFFICIENT MEMORY FOR DE4 SOLVER:
 MXBW MUST BE AT LEAST  123
 
 SOLVING FOR HEAD 

 NO OUTPUT CONTROL FOR STRESS PERIOD    1   TIME STEP  345
 SOLVING FOR ZETA FOR LAYER     1 ZONE     2

    4997 UPPER PART EQS.      4995 LOWER PART EQS.    BAND WIDTH + 1 =  102
 STRESS PERIOD=  1 TIMESTEP=345 LAYER=  1 ZONE=  2 ACTIVE CELLS= 9992 NUMBER OF EQUATIONS=    9992
 
 SOLVING FOR HEAD 

 NO OUTPUT CONTROL FOR STRESS PERIOD    1   TIME STEP  346
 SOLVING FOR ZETA FOR LAYER     1 ZONE     2

    4474 UPPER PART EQS.      4511 LOWER PART EQS.    BAND WIDTH + 1 =  124
 INSUFFICIENT MEMORY FOR DE4 SOLVER:
 MXBW MUST BE AT LEAST  124
 
 SOLVING FOR HEAD 

 NO OUTPUT CONTROL FOR STRESS PERIOD    1   TIME STEP  347
 SOLVING FOR ZETA FOR LAYER     1 ZONE     2

    4998 UPPER PART EQS.      4996 LOWER PART EQS.    BAND WIDTH + 1 =  101
 STRESS PERIOD=  1 TIMESTEP=347 LAYER=  1 ZONE=  2 ACTIVE CELLS= 9994 NUMBER OF EQUATIONS=    9994
 
 SOLVING FOR HEAD 

 NO OUTPUT CONTROL FOR STRESS PERIOD    1   TIME STEP  348
 SOLVING FOR ZETA FOR LAYER     1 ZONE     2

    4470 UPPER PART EQS.      4511 LOWER PART EQS.    BAND WIDTH + 1 =  128
 INSUFFICIENT MEMORY FOR DE4 SOLVER:
 MXBW MUST BE AT LEAST  128
 
 SOLVING FOR HEAD 

 NO OUTPUT CONTROL FOR STRESS PERIOD    1   TIME STEP  349
 SOLVING FOR ZETA FOR LAYER     1 ZONE     2

    4998 UPPER PART EQS.      4996 LOWER PART EQS.    BAND WIDTH + 1 =  101
 STRESS PERIOD=  1 TIMESTEP=349 LAYER=  1 ZONE=  2 ACTIVE CELLS= 9994 NUMBER OF EQUATIONS=    9994
 
 SOLVING FOR HEAD 

 NO OUTPUT CONTROL FOR STRESS PERIOD    1   TIME STEP  350
 SOLVING FOR ZETA FOR LAYER     1 ZONE     2

    4469 UPPER PART EQS.      4512 LOWER PART EQS.    BAND WIDTH + 1 =  130
 INSUFFICIENT MEMORY FOR DE4 SOLVER:
 MXBW MUST BE AT LEAST  130
 
 SOLVING FOR HEAD 

 NO OUTPUT CONTROL FOR STRESS PERIOD    1   TIME STEP  351
 SOLVING FOR ZETA FOR LAYER     1 ZONE     2

    4998 UPPER PART EQS.      4995 LOWER PART EQS.    BAND WIDTH + 1 =  101
 STRESS PERIOD=  1 TIMESTEP=351 LAYER=  1 ZONE=  2 ACTIVE CELLS= 9993 NUMBER OF EQUATIONS=    9993
 
 SOLVING FOR HEAD 

 NO OUTPUT CONTROL FOR STRESS PERIOD    1   TIME STEP  352
 SOLVING FOR ZETA FOR LAYER     1 ZONE     2

    4470 UPPER PART EQS.      4511 LOWER PART EQS.    BAND WIDTH + 1 =  128
 INSUFFICIENT MEMORY FOR DE4 SOLVER:
 MXBW MUST BE AT LEAST  128
 
 SOLVING FOR HEAD 

 NO OUTPUT CONTROL FOR STRESS PERIOD    1   TIME STEP  353
 SOLVING FOR ZETA FOR LAYER     1 ZONE     2

    4998 UPPER PART EQS.      4995 LOWER PART EQS.    BAND WIDTH + 1 =  101
 STRESS PERIOD=  1 TIMESTEP=353 LAYER=  1 ZONE=  2 ACTIVE CELLS= 9993 NUMBER OF EQUATIONS=    9993
 
 SOLVING FOR HEAD 

 NO OUTPUT CONTROL FOR STRESS PERIOD    1   TIME STEP  354
 SOLVING FOR ZETA FOR LAYER     1 ZONE     2

    4468 UPPER PART EQS.      4510 LOWER PART EQS.    BAND WIDTH + 1 =  130
 INSUFFICIENT MEMORY FOR DE4 SOLVER:
 MXBW MUST BE AT LEAST  130
 
 SOLVING FOR HEAD 

 NO OUTPUT CONTROL FOR STRESS PERIOD    1   TIME STEP  355
 SOLVING FOR ZETA FOR LAYER     1 ZONE     2

    4998 UPPER PART EQS.      4995 LOWER PART EQS.    BAND WIDTH + 1 =  101
 STRESS PERIOD=  1 TIMESTEP=355 LAYER=  1 ZONE=  2 ACTIVE CELLS= 9993 NUMBER OF EQUATIONS=    9993
 
 SOLVING FOR HEAD 

 NO OUTPUT CONTROL FOR STRESS PERIOD    1   TIME STEP  356
 SOLVING FOR ZETA FOR LAYER     1 ZONE     2

    4468 UPPER PART EQS.      4508 LOWER PART EQS.    BAND WIDTH + 1 =  129
 INSUFFICIENT MEMORY FOR DE4 SOLVER:
 MXBW MUST BE AT LEAST  129
 
 SOLVING FOR HEAD 

 NO OUTPUT CONTROL FOR STRESS PERIOD    1   TIME STEP  357
 SOLVING FOR ZETA FOR LAYER     1 ZONE     2

    4998 UPPER PART EQS.      4995 LOWER PART EQS.    BAND WIDTH + 1 =  101
 STRESS PERIOD=  1 TIMESTEP=357 LAYER=  1 ZONE=  2 ACTIVE CELLS= 9993 NUMBER OF EQUATIONS=    9993
 
 SOLVING FOR HEAD 

 NO OUTPUT CONTROL FOR STRESS PERIOD    1   TIME STEP  358
 SOLVING FOR ZETA FOR LAYER     1 ZONE     2

    4466 UPPER PART EQS.      4508 LOWER PART EQS.    BAND WIDTH + 1 =  131
 INSUFFICIENT MEMORY FOR DE4 SOLVER:
 MXBW MUST BE AT LEAST  131
 
 SOLVING FOR HEAD 

 NO OUTPUT CONTROL FOR STRESS PERIOD    1   TIME STEP  359
 SOLVING FOR ZETA FOR LAYER     1 ZONE     2

    4998 UPPER PART EQS.      4995 LOWER PART EQS.    BAND WIDTH + 1 =  101
 STRESS PERIOD=  1 TIMESTEP=359 LAYER=  1 ZONE=  2 ACTIVE CELLS= 9993 NUMBER OF EQUATIONS=    9993
 
 SOLVING FOR HEAD 

 NO OUTPUT CONTROL FOR STRESS PERIOD    1   TIME STEP  360
 SOLVING FOR ZETA FOR LAYER     1 ZONE     2

    4466 UPPER PART EQS.      4507 LOWER PART EQS.    BAND WIDTH + 1 =  133
 INSUFFICIENT MEMORY FOR DE4 SOLVER:
 MXBW MUST BE AT LEAST  133
 
 SOLVING FOR HEAD 

 NO OUTPUT CONTROL FOR STRESS PERIOD    1   TIME STEP  361
 SOLVING FOR ZETA FOR LAYER     1 ZONE     2

    4998 UPPER PART EQS.      4995 LOWER PART EQS.    BAND WIDTH + 1 =  101
 STRESS PERIOD=  1 TIMESTEP=361 LAYER=  1 ZONE=  2 ACTIVE CELLS= 9993 NUMBER OF EQUATIONS=    9993
 
 SOLVING FOR HEAD 

 NO OUTPUT CONTROL FOR STRESS PERIOD    1   TIME STEP  362
 SOLVING FOR ZETA FOR LAYER     1 ZONE     2

    4464 UPPER PART EQS.      4508 LOWER PART EQS.    BAND WIDTH + 1 =  131
 INSUFFICIENT MEMORY FOR DE4 SOLVER:
 MXBW MUST BE AT LEAST  131
 
 SOLVING FOR HEAD 

 NO OUTPUT CONTROL FOR STRESS PERIOD    1   TIME STEP  363
 SOLVING FOR ZETA FOR LAYER     1 ZONE     2

    4998 UPPER PART EQS.      4995 LOWER PART EQS.    BAND WIDTH + 1 =  101
 STRESS PERIOD=  1 TIMESTEP=363 LAYER=  1 ZONE=  2 ACTIVE CELLS= 9993 NUMBER OF EQUATIONS=    9993
 
 SOLVING FOR HEAD 

 NO OUTPUT CONTROL FOR STRESS PERIOD    1   TIME STEP  364
 SOLVING FOR ZETA FOR LAYER     1 ZONE     2

    4460 UPPER PART EQS.      4509 LOWER PART EQS.    BAND WIDTH + 1 =  134
 INSUFFICIENT MEMORY FOR DE4 SOLVER:
 MXBW MUST BE AT LEAST  134
 
 SOLVING FOR HEAD 

 NO OUTPUT CONTROL FOR STRESS PERIOD    1   TIME STEP  365
 SOLVING FOR ZETA FOR LAYER     1 ZONE     2

    4998 UPPER PART EQS.      4995 LOWER PART EQS.    BAND WIDTH + 1 =  101
 STRESS PERIOD=  1 TIMESTEP=365 LAYER=  1 ZONE=  2 ACTIVE CELLS= 9993 NUMBER OF EQUATIONS=    9993
 
 SOLVING FOR HEAD 

 NO OUTPUT CONTROL FOR STRESS PERIOD    1   TIME STEP  366
 SOLVING FOR ZETA FOR LAYER     1 ZONE     2

    4463 UPPER PART EQS.      4508 LOWER PART EQS.    BAND WIDTH + 1 =  131
 INSUFFICIENT MEMORY FOR DE4 SOLVER:
 MXBW MUST BE AT LEAST  131
 
 SOLVING FOR HEAD 

 NO OUTPUT CONTROL FOR STRESS PERIOD    1   TIME STEP  367
 SOLVING FOR ZETA FOR LAYER     1 ZONE     2

    4998 UPPER PART EQS.      4995 LOWER PART EQS.    BAND WIDTH + 1 =  101
 STRESS PERIOD=  1 TIMESTEP=367 LAYER=  1 ZONE=  2 ACTIVE CELLS= 9993 NUMBER OF EQUATIONS=    9993
 
 SOLVING FOR HEAD 

 NO OUTPUT CONTROL FOR STRESS PERIOD    1   TIME STEP  368
 SOLVING FOR ZETA FOR LAYER     1 ZONE     2

    4467 UPPER PART EQS.      4508 LOWER PART EQS.    BAND WIDTH + 1 =  127
 INSUFFICIENT MEMORY FOR DE4 SOLVER:
 MXBW MUST BE AT LEAST  127
 
 SOLVING FOR HEAD 

 NO OUTPUT CONTROL FOR STRESS PERIOD    1   TIME STEP  369
 SOLVING FOR ZETA FOR LAYER     1 ZONE     2

    4998 UPPER PART EQS.      4995 LOWER PART EQS.    BAND WIDTH + 1 =  101
 STRESS PERIOD=  1 TIMESTEP=369 LAYER=  1 ZONE=  2 ACTIVE CELLS= 9993 NUMBER OF EQUATIONS=    9993
 
 SOLVING FOR HEAD 

 NO OUTPUT CONTROL FOR STRESS PERIOD    1   TIME STEP  370
 SOLVING FOR ZETA FOR LAYER     1 ZONE     2

    4464 UPPER PART EQS.      4508 LOWER PART EQS.    BAND WIDTH + 1 =  130
 INSUFFICIENT MEMORY FOR DE4 SOLVER:
 MXBW MUST BE AT LEAST  130
 
 SOLVING FOR HEAD 

 NO OUTPUT CONTROL FOR STRESS PERIOD    1   TIME STEP  371
 SOLVING FOR ZETA FOR LAYER     1 ZONE     2

    4998 UPPER PART EQS.      4995 LOWER PART EQS.    BAND WIDTH + 1 =  101
 STRESS PERIOD=  1 TIMESTEP=371 LAYER=  1 ZONE=  2 ACTIVE CELLS= 9993 NUMBER OF EQUATIONS=    9993
 
 SOLVING FOR HEAD 

 NO OUTPUT CONTROL FOR STRESS PERIOD    1   TIME STEP  372
 SOLVING FOR ZETA FOR LAYER     1 ZONE     2

    4469 UPPER PART EQS.      4509 LOWER PART EQS.    BAND WIDTH + 1 =  128
 INSUFFICIENT MEMORY FOR DE4 SOLVER:
 MXBW MUST BE AT LEAST  128
 
 SOLVING FOR HEAD 

 NO OUTPUT CONTROL FOR STRESS PERIOD    1   TIME STEP  373
 SOLVING FOR ZETA FOR LAYER     1 ZONE     2

    4998 UPPER PART EQS.      4995 LOWER PART EQS.    BAND WIDTH + 1 =  101
 STRESS PERIOD=  1 TIMESTEP=373 LAYER=  1 ZONE=  2 ACTIVE CELLS= 9993 NUMBER OF EQUATIONS=    9993
 
 SOLVING FOR HEAD 

 NO OUTPUT CONTROL FOR STRESS PERIOD    1   TIME STEP  374
 SOLVING FOR ZETA FOR LAYER     1 ZONE     2

    4469 UPPER PART EQS.      4510 LOWER PART EQS.    BAND WIDTH + 1 =  129
 INSUFFICIENT MEMORY FOR DE4 SOLVER:
 MXBW MUST BE AT LEAST  129
 
 SOLVING FOR HEAD 

 NO OUTPUT CONTROL FOR STRESS PERIOD    1   TIME STEP  375
 SOLVING FOR ZETA FOR LAYER     1 ZONE     2

    4998 UPPER PART EQS.      4995 LOWER PART EQS.    BAND WIDTH + 1 =  101
 STRESS PERIOD=  1 TIMESTEP=375 LAYER=  1 ZONE=  2 ACTIVE CELLS= 9993 NUMBER OF EQUATIONS=    9993
 
 SOLVING FOR HEAD 

 NO OUTPUT CONTROL FOR STRESS PERIOD    1   TIME STEP  376
 SOLVING FOR ZETA FOR LAYER     1 ZONE     2

    4469 UPPER PART EQS.      4510 LOWER PART EQS.    BAND WIDTH + 1 =  129
 INSUFFICIENT MEMORY FOR DE4 SOLVER:
 MXBW MUST BE AT LEAST  129
 
 SOLVING FOR HEAD 

 NO OUTPUT CONTROL FOR STRESS PERIOD    1   TIME STEP  377
 SOLVING FOR ZETA FOR LAYER     1 ZONE     2

    4998 UPPER PART EQS.      4995 LOWER PART EQS.    BAND WIDTH + 1 =  101
 STRESS PERIOD=  1 TIMESTEP=377 LAYER=  1 ZONE=  2 ACTIVE CELLS= 9993 NUMBER OF EQUATIONS=    9993
 
 SOLVING FOR HEAD 

 NO OUTPUT CONTROL FOR STRESS PERIOD    1   TIME STEP  378
 SOLVING FOR ZETA FOR LAYER     1 ZONE     2

    4471 UPPER PART EQS.      4512 LOWER PART EQS.    BAND WIDTH + 1 =  130
 INSUFFICIENT MEMORY FOR DE4 SOLVER:
 MXBW MUST BE AT LEAST  130
 
 SOLVING FOR HEAD 

 NO OUTPUT CONTROL FOR STRESS PERIOD    1   TIME STEP  379
 SOLVING FOR ZETA FOR LAYER     1 ZONE     2

    4998 UPPER PART EQS.      4994 LOWER PART EQS.    BAND WIDTH + 1 =  102
 STRESS PERIOD=  1 TIMESTEP=379 LAYER=  1 ZONE=  2 ACTIVE CELLS= 9992 NUMBER OF EQUATIONS=    9992
 
 SOLVING FOR HEAD 

 NO OUTPUT CONTROL FOR STRESS PERIOD    1   TIME STEP  380
 SOLVING FOR ZETA FOR LAYER     1 ZONE     2

    4472 UPPER PART EQS.      4511 LOWER PART EQS.    BAND WIDTH + 1 =  128
 INSUFFICIENT MEMORY FOR DE4 SOLVER:
 MXBW MUST BE AT LEAST  128
 
 SOLVING FOR HEAD 

 NO OUTPUT CONTROL FOR STRESS PERIOD    1   TIME STEP  381
 SOLVING FOR ZETA FOR LAYER     1 ZONE     2

    4998 UPPER PART EQS.      4995 LOWER PART EQS.    BAND WIDTH + 1 =  101
 STRESS PERIOD=  1 TIMESTEP=381 LAYER=  1 ZONE=  2 ACTIVE CELLS= 9993 NUMBER OF EQUATIONS=    9993
 
 SOLVING FOR HEAD 

 NO OUTPUT CONTROL FOR STRESS PERIOD    1   TIME STEP  382
 SOLVING FOR ZETA FOR LAYER     1 ZONE     2

    4470 UPPER PART EQS.      4510 LOWER PART EQS.    BAND WIDTH + 1 =  129
 INSUFFICIENT MEMORY FOR DE4 SOLVER:
 MXBW MUST BE AT LEAST  129
 
 SOLVING FOR HEAD 

 NO OUTPUT CONTROL FOR STRESS PERIOD    1   TIME STEP  383
 SOLVING FOR ZETA FOR LAYER     1 ZONE     2

    4998 UPPER PART EQS.      4995 LOWER PART EQS.    BAND WIDTH + 1 =  101
 STRESS PERIOD=  1 TIMESTEP=383 LAYER=  1 ZONE=  2 ACTIVE CELLS= 9993 NUMBER OF EQUATIONS=    9993
 
 SOLVING FOR HEAD 

 NO OUTPUT CONTROL FOR STRESS PERIOD    1   TIME STEP  384
 SOLVING FOR ZETA FOR LAYER     1 ZONE     2

    4469 UPPER PART EQS.      4511 LOWER PART EQS.    BAND WIDTH + 1 =  129
 INSUFFICIENT MEMORY FOR DE4 SOLVER:
 MXBW MUST BE AT LEAST  129
 
 SOLVING FOR HEAD 

 NO OUTPUT CONTROL FOR STRESS PERIOD    1   TIME STEP  385
 SOLVING FOR ZETA FOR LAYER     1 ZONE     2

    4998 UPPER PART EQS.      4995 LOWER PART EQS.    BAND WIDTH + 1 =  101
 STRESS PERIOD=  1 TIMESTEP=385 LAYER=  1 ZONE=  2 ACTIVE CELLS= 9993 NUMBER OF EQUATIONS=    9993
 
 SOLVING FOR HEAD 

 NO OUTPUT CONTROL FOR STRESS PERIOD    1   TIME STEP  386
 SOLVING FOR ZETA FOR LAYER     1 ZONE     2

    4470 UPPER PART EQS.      4510 LOWER PART EQS.    BAND WIDTH + 1 =  127
 INSUFFICIENT MEMORY FOR DE4 SOLVER:
 MXBW MUST BE AT LEAST  127
 
 SOLVING FOR HEAD 

 NO OUTPUT CONTROL FOR STRESS PERIOD    1   TIME STEP  387
 SOLVING FOR ZETA FOR LAYER     1 ZONE     2

    4997 UPPER PART EQS.      4995 LOWER PART EQS.    BAND WIDTH + 1 =  101
 STRESS PERIOD=  1 TIMESTEP=387 LAYER=  1 ZONE=  2 ACTIVE CELLS= 9992 NUMBER OF EQUATIONS=    9992
 
 SOLVING FOR HEAD 

 NO OUTPUT CONTROL FOR STRESS PERIOD    1   TIME STEP  388
 SOLVING FOR ZETA FOR LAYER     1 ZONE     2

    4469 UPPER PART EQS.      4508 LOWER PART EQS.    BAND WIDTH + 1 =  128
 INSUFFICIENT MEMORY FOR DE4 SOLVER:
 MXBW MUST BE AT LEAST  128
 
 SOLVING FOR HEAD 

 NO OUTPUT CONTROL FOR STRESS PERIOD    1   TIME STEP  389
 SOLVING FOR ZETA FOR LAYER     1 ZONE     2

    4998 UPPER PART EQS.      4995 LOWER PART EQS.    BAND WIDTH + 1 =  101
 STRESS PERIOD=  1 TIMESTEP=389 LAYER=  1 ZONE=  2 ACTIVE CELLS= 9993 NUMBER OF EQUATIONS=    9993
 
 SOLVING FOR HEAD 

 NO OUTPUT CONTROL FOR STRESS PERIOD    1   TIME STEP  390
 SOLVING FOR ZETA FOR LAYER     1 ZONE     2

    4469 UPPER PART EQS.      4508 LOWER PART EQS.    BAND WIDTH + 1 =  127
 INSUFFICIENT MEMORY FOR DE4 SOLVER:
 MXBW MUST BE AT LEAST  127
 
 SOLVING FOR HEAD 

 NO OUTPUT CONTROL FOR STRESS PERIOD    1   TIME STEP  391
 SOLVING FOR ZETA FOR LAYER     1 ZONE     2

    4998 UPPER PART EQS.      4995 LOWER PART EQS.    BAND WIDTH + 1 =  101
 STRESS PERIOD=  1 TIMESTEP=391 LAYER=  1 ZONE=  2 ACTIVE CELLS= 9993 NUMBER OF EQUATIONS=    9993
 
 SOLVING FOR HEAD 

 NO OUTPUT CONTROL FOR STRESS PERIOD    1   TIME STEP  392
 SOLVING FOR ZETA FOR LAYER     1 ZONE     2

    4469 UPPER PART EQS.      4506 LOWER PART EQS.    BAND WIDTH + 1 =  129
 INSUFFICIENT MEMORY FOR DE4 SOLVER:
 MXBW MUST BE AT LEAST  129
 
 SOLVING FOR HEAD 

 NO OUTPUT CONTROL FOR STRESS PERIOD    1   TIME STEP  393
 SOLVING FOR ZETA FOR LAYER     1 ZONE     2

    4997 UPPER PART EQS.      4995 LOWER PART EQS.    BAND WIDTH + 1 =  101
 STRESS PERIOD=  1 TIMESTEP=393 LAYER=  1 ZONE=  2 ACTIVE CELLS= 9992 NUMBER OF EQUATIONS=    9992
 
 SOLVING FOR HEAD 

 NO OUTPUT CONTROL FOR STRESS PERIOD    1   TIME STEP  394
 SOLVING FOR ZETA FOR LAYER     1 ZONE     2

    4464 UPPER PART EQS.      4508 LOWER PART EQS.    BAND WIDTH + 1 =  134
 INSUFFICIENT MEMORY FOR DE4 SOLVER:
 MXBW MUST BE AT LEAST  134
 
 SOLVING FOR HEAD 

 NO OUTPUT CONTROL FOR STRESS PERIOD    1   TIME STEP  395
 SOLVING FOR ZETA FOR LAYER     1 ZONE     2

    4998 UPPER PART EQS.      4995 LOWER PART EQS.    BAND WIDTH + 1 =  101
 STRESS PERIOD=  1 TIMESTEP=395 LAYER=  1 ZONE=  2 ACTIVE CELLS= 9993 NUMBER OF EQUATIONS=    9993
 
 SOLVING FOR HEAD 

 NO OUTPUT CONTROL FOR STRESS PERIOD    1   TIME STEP  396
 SOLVING FOR ZETA FOR LAYER     1 ZONE     2

    4464 UPPER PART EQS.      4506 LOWER PART EQS.    BAND WIDTH + 1 =  134
 INSUFFICIENT MEMORY FOR DE4 SOLVER:
 MXBW MUST BE AT LEAST  134
 
 SOLVING FOR HEAD 

 NO OUTPUT CONTROL FOR STRESS PERIOD    1   TIME STEP  397
 SOLVING FOR ZETA FOR LAYER     1 ZONE     2

    4997 UPPER PART EQS.      4995 LOWER PART EQS.    BAND WIDTH + 1 =  101
 STRESS PERIOD=  1 TIMESTEP=397 LAYER=  1 ZONE=  2 ACTIVE CELLS= 9992 NUMBER OF EQUATIONS=    9992
 
 SOLVING FOR HEAD 

 NO OUTPUT CONTROL FOR STRESS PERIOD    1   TIME STEP  398
 SOLVING FOR ZETA FOR LAYER     1 ZONE     2

    4464 UPPER PART EQS.      4507 LOWER PART EQS.    BAND WIDTH + 1 =  133
 INSUFFICIENT MEMORY FOR DE4 SOLVER:
 MXBW MUST BE AT LEAST  133
 
 SOLVING FOR HEAD 

 NO OUTPUT CONTROL FOR STRESS PERIOD    1   TIME STEP  399
 SOLVING FOR ZETA FOR LAYER     1 ZONE     2

    4998 UPPER PART EQS.      4995 LOWER PART EQS.    BAND WIDTH + 1 =  101
 STRESS PERIOD=  1 TIMESTEP=399 LAYER=  1 ZONE=  2 ACTIVE CELLS= 9993 NUMBER OF EQUATIONS=    9993
 
 SOLVING FOR HEAD 

 OUTPUT CONTROL FOR STRESS PERIOD    1   TIME STEP  400
    PRINT BUDGET
    SAVE HEAD FOR ALL LAYERS
 SOLVING FOR ZETA FOR LAYER     1 ZONE     2

    4467 UPPER PART EQS.      4507 LOWER PART EQS.    BAND WIDTH + 1 =  131
 INSUFFICIENT MEMORY FOR DE4 SOLVER:
 MXBW MUST BE AT LEAST  131
 UBUDSV SAVING "      ZETASRF  1" ON UNIT 55 AT TIME STEP400, STRESS PERIOD    1


                      VOLUMETRIC SWI ZONE BUDGET FOR ENTIRE MODEL
                     AT END OF TIME STEP  400 IN STRESS PERIOD   1
                                      ZONE     1
  -----------------------------------------------------------------------------------

        CUMULATIVE VOLUMES      L**3       RATES FOR THIS TIME STEP      L**3/T
        ------------------                 ------------------------

              IN:                                      IN:
              ---                                      ---
             BOUNDARIES =   170393760.0000            BOUNDARIES =        5858.7690
          CONSTANT HEAD =           0.0000         CONSTANT HEAD =           0.0000
            ZONE CHANGE =     7696215.5000           ZONE CHANGE =           0.0000
       ZONE CHG TIP/TOE =    29309766.0000      ZONE CHG TIP/TOE =          12.0747
            ZONE MIXING =           0.0000           ZONE MIXING =           0.0000

               TOTAL IN =   207399728.0000              TOTAL IN =        5870.8438

             OUT:                                     OUT:
             ----                                     ----
             BOUNDARIES =    87723296.0000            BOUNDARIES =       6.5954E-03
          CONSTANT HEAD =           0.0000         CONSTANT HEAD =           0.0000
            ZONE CHANGE =    60053960.0000           ZONE CHANGE =           0.0000
       ZONE CHG TIP/TOE =      948664.5000      ZONE CHG TIP/TOE =          24.5284
            ZONE MIXING =           0.0000           ZONE MIXING =           0.0000

              TOTAL OUT =   148725920.0000             TOTAL OUT =          24.5350

               IN - OUT =    58673808.0000              IN - OUT =        5846.3086

    PERCENT DISCREPANCY =          32.95     PERCENT DISCREPANCY =         198.34



                      VOLUMETRIC SWI ZONE BUDGET FOR ENTIRE MODEL
                     AT END OF TIME STEP  400 IN STRESS PERIOD   1
                                      ZONE     2
  -----------------------------------------------------------------------------------

        CUMULATIVE VOLUMES      L**3       RATES FOR THIS TIME STEP      L**3/T
        ------------------                 ------------------------

              IN:                                      IN:
              ---                                      ---
             BOUNDARIES =      887240.3750            BOUNDARIES =           2.9940
          CONSTANT HEAD =           0.0000         CONSTANT HEAD =           0.0000
            ZONE CHANGE =    30899020.0000           ZONE CHANGE =           0.0000
       ZONE CHG TIP/TOE =    44086640.0000      ZONE CHG TIP/TOE =          24.5284
            ZONE MIXING =           0.0000           ZONE MIXING =           0.0000

               TOTAL IN =    75872896.0000              TOTAL IN =          27.5224

             OUT:                                     OUT:
             ----                                     ----
             BOUNDARIES =    83557032.0000            BOUNDARIES =        5861.7563
          CONSTANT HEAD =           0.0000         CONSTANT HEAD =           0.0000
            ZONE CHANGE =    50834196.0000           ZONE CHANGE =           0.0000
       ZONE CHG TIP/TOE =      154827.8281      ZONE CHG TIP/TOE =          12.0747
            ZONE MIXING =           0.0000           ZONE MIXING =           0.0000

              TOTAL OUT =   134546064.0000             TOTAL OUT =        5873.8311

               IN - OUT =   -58673168.0000              IN - OUT =       -5846.3086

    PERCENT DISCREPANCY =         -55.77     PERCENT DISCREPANCY =        -198.13


 HEAD WILL BE SAVED ON UNIT   51 AT END OF TIME STEP  400, STRESS PERIOD    1
1
  VOLUMETRIC BUDGET FOR ENTIRE MODEL AT END OF TIME STEP  400, STRESS PERIOD   1
  ------------------------------------------------------------------------------

     CUMULATIVE VOLUMES      L**3       RATES FOR THIS TIME STEP      L**3/T
     ------------------                 ------------------------

           IN:                                      IN:
           ---                                      ---
             STORAGE =           0.0000               STORAGE =           0.0000
       CONSTANT HEAD =           0.0000         CONSTANT HEAD =           0.0000
          SWIADDTOCH =           0.0000            SWIADDTOCH =           0.0000
     HEAD DEP BOUNDS =           6.1878       HEAD DEP BOUNDS =       2.1070E-04
            RECHARGE =   171280848.0000              RECHARGE =        5861.7627

            TOTAL IN =   171280848.0000              TOTAL IN =        5861.7627

          OUT:                                     OUT:
          ----                                     ----
             STORAGE =           0.0000               STORAGE =           0.0000
       CONSTANT HEAD =           0.0000         CONSTANT HEAD =           0.0000
          SWIADDTOCH =           0.0000            SWIADDTOCH =           0.0000
     HEAD DEP BOUNDS =   171280848.0000       HEAD DEP BOUNDS =        5861.7627
            RECHARGE =           0.0000              RECHARGE =           0.0000

           TOTAL OUT =   171280848.0000             TOTAL OUT =        5861.7627

            IN - OUT =           0.0000              IN - OUT =           0.0000

 PERCENT DISCREPANCY =           0.00     PERCENT DISCREPANCY =           0.00






         TIME SUMMARY AT END OF TIME STEP  400 IN STRESS PERIOD    1
                    SECONDS     MINUTES      HOURS       DAYS        YEARS
                    -----------------------------------------------------------
   TIME STEP LENGTH 6.31152E+06 1.05192E+05  1753.2      73.050     0.20000    
 STRESS PERIOD TIME 2.52462E+09 4.20770E+07 7.01283E+05  29220.      80.000    
         TOTAL TIME 2.52462E+09 4.20770E+07 7.01283E+05  29220.      80.000    
1
 
 SOLVING FOR HEAD 

 NO OUTPUT CONTROL FOR STRESS PERIOD    1   TIME STEP  401
 SOLVING FOR ZETA FOR LAYER     1 ZONE     2

    4998 UPPER PART EQS.      4995 LOWER PART EQS.    BAND WIDTH + 1 =  101
 STRESS PERIOD=  1 TIMESTEP=401 LAYER=  1 ZONE=  2 ACTIVE CELLS= 9993 NUMBER OF EQUATIONS=    9993
 
 SOLVING FOR HEAD 

 NO OUTPUT CONTROL FOR STRESS PERIOD    1   TIME STEP  402
 SOLVING FOR ZETA FOR LAYER     1 ZONE     2

    4467 UPPER PART EQS.      4505 LOWER PART EQS.    BAND WIDTH + 1 =  130
 INSUFFICIENT MEMORY FOR DE4 SOLVER:
 MXBW MUST BE AT LEAST  130
 
 SOLVING FOR HEAD 

 NO OUTPUT CONTROL FOR STRESS PERIOD    1   TIME STEP  403
 SOLVING FOR ZETA FOR LAYER     1 ZONE     2

    4998 UPPER PART EQS.      4994 LOWER PART EQS.    BAND WIDTH + 1 =  101
 STRESS PERIOD=  1 TIMESTEP=403 LAYER=  1 ZONE=  2 ACTIVE CELLS= 9992 NUMBER OF EQUATIONS=    9992
 
 SOLVING FOR HEAD 

 NO OUTPUT CONTROL FOR STRESS PERIOD    1   TIME STEP  404
 SOLVING FOR ZETA FOR LAYER     1 ZONE     2

    4468 UPPER PART EQS.      4505 LOWER PART EQS.    BAND WIDTH + 1 =  131
 INSUFFICIENT MEMORY FOR DE4 SOLVER:
 MXBW MUST BE AT LEAST  131
 
 SOLVING FOR HEAD 

 NO OUTPUT CONTROL FOR STRESS PERIOD    1   TIME STEP  405
 SOLVING FOR ZETA FOR LAYER     1 ZONE     2

    4998 UPPER PART EQS.      4995 LOWER PART EQS.    BAND WIDTH + 1 =  101
 STRESS PERIOD=  1 TIMESTEP=405 LAYER=  1 ZONE=  2 ACTIVE CELLS= 9993 NUMBER OF EQUATIONS=    9993
 
 SOLVING FOR HEAD 

 NO OUTPUT CONTROL FOR STRESS PERIOD    1   TIME STEP  406
 SOLVING FOR ZETA FOR LAYER     1 ZONE     2

    4468 UPPER PART EQS.      4504 LOWER PART EQS.    BAND WIDTH + 1 =  130
 INSUFFICIENT MEMORY FOR DE4 SOLVER:
 MXBW MUST BE AT LEAST  130
 
 SOLVING FOR HEAD 

 NO OUTPUT CONTROL FOR STRESS PERIOD    1   TIME STEP  407
 SOLVING FOR ZETA FOR LAYER     1 ZONE     2

    4998 UPPER PART EQS.      4995 LOWER PART EQS.    BAND WIDTH + 1 =  101
 STRESS PERIOD=  1 TIMESTEP=407 LAYER=  1 ZONE=  2 ACTIVE CELLS= 9993 NUMBER OF EQUATIONS=    9993
 
 SOLVING FOR HEAD 

 NO OUTPUT CONTROL FOR STRESS PERIOD    1   TIME STEP  408
 SOLVING FOR ZETA FOR LAYER     1 ZONE     2

    4472 UPPER PART EQS.      4504 LOWER PART EQS.    BAND WIDTH + 1 =  130
 INSUFFICIENT MEMORY FOR DE4 SOLVER:
 MXBW MUST BE AT LEAST  130
 
 SOLVING FOR HEAD 

 NO OUTPUT CONTROL FOR STRESS PERIOD    1   TIME STEP  409
 SOLVING FOR ZETA FOR LAYER     1 ZONE     2

    4998 UPPER PART EQS.      4995 LOWER PART EQS.    BAND WIDTH + 1 =  101
 STRESS PERIOD=  1 TIMESTEP=409 LAYER=  1 ZONE=  2 ACTIVE CELLS= 9993 NUMBER OF EQUATIONS=    9993
 
 SOLVING FOR HEAD 

 NO OUTPUT CONTROL FOR STRESS PERIOD    1   TIME STEP  410
 SOLVING FOR ZETA FOR LAYER     1 ZONE     2

    4471 UPPER PART EQS.      4504 LOWER PART EQS.    BAND WIDTH + 1 =  130
 INSUFFICIENT MEMORY FOR DE4 SOLVER:
 MXBW MUST BE AT LEAST  130
 
 SOLVING FOR HEAD 

 NO OUTPUT CONTROL FOR STRESS PERIOD    1   TIME STEP  411
 SOLVING FOR ZETA FOR LAYER     1 ZONE     2

    4998 UPPER PART EQS.      4995 LOWER PART EQS.    BAND WIDTH + 1 =  101
 STRESS PERIOD=  1 TIMESTEP=411 LAYER=  1 ZONE=  2 ACTIVE CELLS= 9993 NUMBER OF EQUATIONS=    9993
 
 SOLVING FOR HEAD 

 NO OUTPUT CONTROL FOR STRESS PERIOD    1   TIME STEP  412
 SOLVING FOR ZETA FOR LAYER     1 ZONE     2

    4470 UPPER PART EQS.      4505 LOWER PART EQS.    BAND WIDTH + 1 =  130
 INSUFFICIENT MEMORY FOR DE4 SOLVER:
 MXBW MUST BE AT LEAST  130
 
 SOLVING FOR HEAD 

 NO OUTPUT CONTROL FOR STRESS PERIOD    1   TIME STEP  413
 SOLVING FOR ZETA FOR LAYER     1 ZONE     2

    4998 UPPER PART EQS.      4995 LOWER PART EQS.    BAND WIDTH + 1 =  101
 STRESS PERIOD=  1 TIMESTEP=413 LAYER=  1 ZONE=  2 ACTIVE CELLS= 9993 NUMBER OF EQUATIONS=    9993
 
 SOLVING FOR HEAD 

 NO OUTPUT CONTROL FOR STRESS PERIOD    1   TIME STEP  414
 SOLVING FOR ZETA FOR LAYER     1 ZONE     2

    4473 UPPER PART EQS.      4506 LOWER PART EQS.    BAND WIDTH + 1 =  129
 INSUFFICIENT MEMORY FOR DE4 SOLVER:
 MXBW MUST BE AT LEAST  129
 
 SOLVING FOR HEAD 

 NO OUTPUT CONTROL FOR STRESS PERIOD    1   TIME STEP  415
 SOLVING FOR ZETA FOR LAYER     1 ZONE     2

    4998 UPPER PART EQS.      4995 LOWER PART EQS.    BAND WIDTH + 1 =  101
 STRESS PERIOD=  1 TIMESTEP=415 LAYER=  1 ZONE=  2 ACTIVE CELLS= 9993 NUMBER OF EQUATIONS=    9993
 
 SOLVING FOR HEAD 

 NO OUTPUT CONTROL FOR STRESS PERIOD    1   TIME STEP  416
 SOLVING FOR ZETA FOR LAYER     1 ZONE     2

    4470 UPPER PART EQS.      4501 LOWER PART EQS.    BAND WIDTH + 1 =  130
 INSUFFICIENT MEMORY FOR DE4 SOLVER:
 MXBW MUST BE AT LEAST  130
 
 SOLVING FOR HEAD 

 NO OUTPUT CONTROL FOR STRESS PERIOD    1   TIME STEP  417
 SOLVING FOR ZETA FOR LAYER     1 ZONE     2

    4998 UPPER PART EQS.      4995 LOWER PART EQS.    BAND WIDTH + 1 =  101
 STRESS PERIOD=  1 TIMESTEP=417 LAYER=  1 ZONE=  2 ACTIVE CELLS= 9993 NUMBER OF EQUATIONS=    9993
 
 SOLVING FOR HEAD 

 NO OUTPUT CONTROL FOR STRESS PERIOD    1   TIME STEP  418
 SOLVING FOR ZETA FOR LAYER     1 ZONE     2

    4470 UPPER PART EQS.      4505 LOWER PART EQS.    BAND WIDTH + 1 =  128
 INSUFFICIENT MEMORY FOR DE4 SOLVER:
 MXBW MUST BE AT LEAST  128
 
 SOLVING FOR HEAD 

 NO OUTPUT CONTROL FOR STRESS PERIOD    1   TIME STEP  419
 SOLVING FOR ZETA FOR LAYER     1 ZONE     2

    4998 UPPER PART EQS.      4996 LOWER PART EQS.    BAND WIDTH + 1 =  101
 STRESS PERIOD=  1 TIMESTEP=419 LAYER=  1 ZONE=  2 ACTIVE CELLS= 9994 NUMBER OF EQUATIONS=    9994
 
 SOLVING FOR HEAD 

 NO OUTPUT CONTROL FOR STRESS PERIOD    1   TIME STEP  420
 SOLVING FOR ZETA FOR LAYER     1 ZONE     2

    4469 UPPER PART EQS.      4504 LOWER PART EQS.    BAND WIDTH + 1 =  127
 INSUFFICIENT MEMORY FOR DE4 SOLVER:
 MXBW MUST BE AT LEAST  127
 
 SOLVING FOR HEAD 

 NO OUTPUT CONTROL FOR STRESS PERIOD    1   TIME STEP  421
 SOLVING FOR ZETA FOR LAYER     1 ZONE     2

    4998 UPPER PART EQS.      4996 LOWER PART EQS.    BAND WIDTH + 1 =  101
 STRESS PERIOD=  1 TIMESTEP=421 LAYER=  1 ZONE=  2 ACTIVE CELLS= 9994 NUMBER OF EQUATIONS=    9994
 
 SOLVING FOR HEAD 

 NO OUTPUT CONTROL FOR STRESS PERIOD    1   TIME STEP  422
 SOLVING FOR ZETA FOR LAYER     1 ZONE     2

    4470 UPPER PART EQS.      4509 LOWER PART EQS.    BAND WIDTH + 1 =  130
 INSUFFICIENT MEMORY FOR DE4 SOLVER:
 MXBW MUST BE AT LEAST  130
 
 SOLVING FOR HEAD 

 NO OUTPUT CONTROL FOR STRESS PERIOD    1   TIME STEP  423
 SOLVING FOR ZETA FOR LAYER     1 ZONE     2

    4998 UPPER PART EQS.      4996 LOWER PART EQS.    BAND WIDTH + 1 =  101
 STRESS PERIOD=  1 TIMESTEP=423 LAYER=  1 ZONE=  2 ACTIVE CELLS= 9994 NUMBER OF EQUATIONS=    9994
 
 SOLVING FOR HEAD 

 NO OUTPUT CONTROL FOR STRESS PERIOD    1   TIME STEP  424
 SOLVING FOR ZETA FOR LAYER     1 ZONE     2

    4466 UPPER PART EQS.      4510 LOWER PART EQS.    BAND WIDTH + 1 =  133
 INSUFFICIENT MEMORY FOR DE4 SOLVER:
 MXBW MUST BE AT LEAST  133
 
 SOLVING FOR HEAD 

 NO OUTPUT CONTROL FOR STRESS PERIOD    1   TIME STEP  425
 SOLVING FOR ZETA FOR LAYER     1 ZONE     2

    4998 UPPER PART EQS.      4997 LOWER PART EQS.    BAND WIDTH + 1 =  101
 STRESS PERIOD=  1 TIMESTEP=425 LAYER=  1 ZONE=  2 ACTIVE CELLS= 9995 NUMBER OF EQUATIONS=    9995
 
 SOLVING FOR HEAD 

 NO OUTPUT CONTROL FOR STRESS PERIOD    1   TIME STEP  426
 SOLVING FOR ZETA FOR LAYER     1 ZONE     2

    4467 UPPER PART EQS.      4509 LOWER PART EQS.    BAND WIDTH + 1 =  133
 INSUFFICIENT MEMORY FOR DE4 SOLVER:
 MXBW MUST BE AT LEAST  133
 
 SOLVING FOR HEAD 

 NO OUTPUT CONTROL FOR STRESS PERIOD    1   TIME STEP  427
 SOLVING FOR ZETA FOR LAYER     1 ZONE     2

    4998 UPPER PART EQS.      4997 LOWER PART EQS.    BAND WIDTH + 1 =  101
 STRESS PERIOD=  1 TIMESTEP=427 LAYER=  1 ZONE=  2 ACTIVE CELLS= 9995 NUMBER OF EQUATIONS=    9995
 
 SOLVING FOR HEAD 

 NO OUTPUT CONTROL FOR STRESS PERIOD    1   TIME STEP  428
 SOLVING FOR ZETA FOR LAYER     1 ZONE     2

    4462 UPPER PART EQS.      4508 LOWER PART EQS.    BAND WIDTH + 1 =  136
 INSUFFICIENT MEMORY FOR DE4 SOLVER:
 MXBW MUST BE AT LEAST  136
 
 SOLVING FOR HEAD 

 NO OUTPUT CONTROL FOR STRESS PERIOD    1   TIME STEP  429
 SOLVING FOR ZETA FOR LAYER     1 ZONE     2

    4998 UPPER PART EQS.      4996 LOWER PART EQS.    BAND WIDTH + 1 =  101
 STRESS PERIOD=  1 TIMESTEP=429 LAYER=  1 ZONE=  2 ACTIVE CELLS= 9994 NUMBER OF EQUATIONS=    9994
 
 SOLVING FOR HEAD 

 NO OUTPUT CONTROL FOR STRESS PERIOD    1   TIME STEP  430
 SOLVING FOR ZETA FOR LAYER     1 ZONE     2

    4465 UPPER PART EQS.      4511 LOWER PART EQS.    BAND WIDTH + 1 =  138
 INSUFFICIENT MEMORY FOR DE4 SOLVER:
 MXBW MUST BE AT LEAST  138
 
 SOLVING FOR HEAD 

 NO OUTPUT CONTROL FOR STRESS PERIOD    1   TIME STEP  431
 SOLVING FOR ZETA FOR LAYER     1 ZONE     2

    4998 UPPER PART EQS.      4997 LOWER PART EQS.    BAND WIDTH + 1 =  101
 STRESS PERIOD=  1 TIMESTEP=431 LAYER=  1 ZONE=  2 ACTIVE CELLS= 9995 NUMBER OF EQUATIONS=    9995
 
 SOLVING FOR HEAD 

 NO OUTPUT CONTROL FOR STRESS PERIOD    1   TIME STEP  432
 SOLVING FOR ZETA FOR LAYER     1 ZONE     2

    4465 UPPER PART EQS.      4509 LOWER PART EQS.    BAND WIDTH + 1 =  135
 INSUFFICIENT MEMORY FOR DE4 SOLVER:
 MXBW MUST BE AT LEAST  135
 
 SOLVING FOR HEAD 

 NO OUTPUT CONTROL FOR STRESS PERIOD    1   TIME STEP  433
 SOLVING FOR ZETA FOR LAYER     1 ZONE     2

    4998 UPPER PART EQS.      4997 LOWER PART EQS.    BAND WIDTH + 1 =  101
 STRESS PERIOD=  1 TIMESTEP=433 LAYER=  1 ZONE=  2 ACTIVE CELLS= 9995 NUMBER OF EQUATIONS=    9995
 
 SOLVING FOR HEAD 

 NO OUTPUT CONTROL FOR STRESS PERIOD    1   TIME STEP  434
 SOLVING FOR ZETA FOR LAYER     1 ZONE     2

    4465 UPPER PART EQS.      4509 LOWER PART EQS.    BAND WIDTH + 1 =  138
 INSUFFICIENT MEMORY FOR DE4 SOLVER:
 MXBW MUST BE AT LEAST  138
 
 SOLVING FOR HEAD 

 NO OUTPUT CONTROL FOR STRESS PERIOD    1   TIME STEP  435
 SOLVING FOR ZETA FOR LAYER     1 ZONE     2

    4998 UPPER PART EQS.      4997 LOWER PART EQS.    BAND WIDTH + 1 =  101
 STRESS PERIOD=  1 TIMESTEP=435 LAYER=  1 ZONE=  2 ACTIVE CELLS= 9995 NUMBER OF EQUATIONS=    9995
 
 SOLVING FOR HEAD 

 NO OUTPUT CONTROL FOR STRESS PERIOD    1   TIME STEP  436
 SOLVING FOR ZETA FOR LAYER     1 ZONE     2

    4464 UPPER PART EQS.      4510 LOWER PART EQS.    BAND WIDTH + 1 =  137
 INSUFFICIENT MEMORY FOR DE4 SOLVER:
 MXBW MUST BE AT LEAST  137
 
 SOLVING FOR HEAD 

 NO OUTPUT CONTROL FOR STRESS PERIOD    1   TIME STEP  437
 SOLVING FOR ZETA FOR LAYER     1 ZONE     2

    4997 UPPER PART EQS.      4996 LOWER PART EQS.    BAND WIDTH + 1 =  101
 STRESS PERIOD=  1 TIMESTEP=437 LAYER=  1 ZONE=  2 ACTIVE CELLS= 9993 NUMBER OF EQUATIONS=    9993
 
 SOLVING FOR HEAD 

 NO OUTPUT CONTROL FOR STRESS PERIOD    1   TIME STEP  438
 SOLVING FOR ZETA FOR LAYER     1 ZONE     2

    4464 UPPER PART EQS.      4511 LOWER PART EQS.    BAND WIDTH + 1 =  138
 INSUFFICIENT MEMORY FOR DE4 SOLVER:
 MXBW MUST BE AT LEAST  138
 
 SOLVING FOR HEAD 

 NO OUTPUT CONTROL FOR STRESS PERIOD    1   TIME STEP  439
 SOLVING FOR ZETA FOR LAYER     1 ZONE     2

    4998 UPPER PART EQS.      4997 LOWER PART EQS.    BAND WIDTH + 1 =  101
 STRESS PERIOD=  1 TIMESTEP=439 LAYER=  1 ZONE=  2 ACTIVE CELLS= 9995 NUMBER OF EQUATIONS=    9995
 
 SOLVING FOR HEAD 

 NO OUTPUT CONTROL FOR STRESS PERIOD    1   TIME STEP  440
 SOLVING FOR ZETA FOR LAYER     1 ZONE     2

    4463 UPPER PART EQS.      4511 LOWER PART EQS.    BAND WIDTH + 1 =  138
 INSUFFICIENT MEMORY FOR DE4 SOLVER:
 MXBW MUST BE AT LEAST  138
 
 SOLVING FOR HEAD 

 NO OUTPUT CONTROL FOR STRESS PERIOD    1   TIME STEP  441
 SOLVING FOR ZETA FOR LAYER     1 ZONE     2

    4998 UPPER PART EQS.      4997 LOWER PART EQS.    BAND WIDTH + 1 =  101
 STRESS PERIOD=  1 TIMESTEP=441 LAYER=  1 ZONE=  2 ACTIVE CELLS= 9995 NUMBER OF EQUATIONS=    9995
 
 SOLVING FOR HEAD 

 NO OUTPUT CONTROL FOR STRESS PERIOD    1   TIME STEP  442
 SOLVING FOR ZETA FOR LAYER     1 ZONE     2

    4464 UPPER PART EQS.      4511 LOWER PART EQS.    BAND WIDTH + 1 =  138
 INSUFFICIENT MEMORY FOR DE4 SOLVER:
 MXBW MUST BE AT LEAST  138
 
 SOLVING FOR HEAD 

 NO OUTPUT CONTROL FOR STRESS PERIOD    1   TIME STEP  443
 SOLVING FOR ZETA FOR LAYER     1 ZONE     2

    4998 UPPER PART EQS.      4997 LOWER PART EQS.    BAND WIDTH + 1 =  101
 STRESS PERIOD=  1 TIMESTEP=443 LAYER=  1 ZONE=  2 ACTIVE CELLS= 9995 NUMBER OF EQUATIONS=    9995
 
 SOLVING FOR HEAD 

 NO OUTPUT CONTROL FOR STRESS PERIOD    1   TIME STEP  444
 SOLVING FOR ZETA FOR LAYER     1 ZONE     2

    4466 UPPER PART EQS.      4513 LOWER PART EQS.    BAND WIDTH + 1 =  138
 INSUFFICIENT MEMORY FOR DE4 SOLVER:
 MXBW MUST BE AT LEAST  138
 
 SOLVING FOR HEAD 

 NO OUTPUT CONTROL FOR STRESS PERIOD    1   TIME STEP  445
 SOLVING FOR ZETA FOR LAYER     1 ZONE     2

    4998 UPPER PART EQS.      4996 LOWER PART EQS.    BAND WIDTH + 1 =  101
 STRESS PERIOD=  1 TIMESTEP=445 LAYER=  1 ZONE=  2 ACTIVE CELLS= 9994 NUMBER OF EQUATIONS=    9994
 
 SOLVING FOR HEAD 

 NO OUTPUT CONTROL FOR STRESS PERIOD    1   TIME STEP  446
 SOLVING FOR ZETA FOR LAYER     1 ZONE     2

    4467 UPPER PART EQS.      4508 LOWER PART EQS.    BAND WIDTH + 1 =  135
 INSUFFICIENT MEMORY FOR DE4 SOLVER:
 MXBW MUST BE AT LEAST  135
 
 SOLVING FOR HEAD 

 NO OUTPUT CONTROL FOR STRESS PERIOD    1   TIME STEP  447
 SOLVING FOR ZETA FOR LAYER     1 ZONE     2

    4998 UPPER PART EQS.      4997 LOWER PART EQS.    BAND WIDTH + 1 =  101
 STRESS PERIOD=  1 TIMESTEP=447 LAYER=  1 ZONE=  2 ACTIVE CELLS= 9995 NUMBER OF EQUATIONS=    9995
 
 SOLVING FOR HEAD 

 NO OUTPUT CONTROL FOR STRESS PERIOD    1   TIME STEP  448
 SOLVING FOR ZETA FOR LAYER     1 ZONE     2

    4464 UPPER PART EQS.      4511 LOWER PART EQS.    BAND WIDTH + 1 =  138
 INSUFFICIENT MEMORY FOR DE4 SOLVER:
 MXBW MUST BE AT LEAST  138
 
 SOLVING FOR HEAD 

 NO OUTPUT CONTROL FOR STRESS PERIOD    1   TIME STEP  449
 SOLVING FOR ZETA FOR LAYER     1 ZONE     2

    4998 UPPER PART EQS.      4997 LOWER PART EQS.    BAND WIDTH + 1 =  101
 STRESS PERIOD=  1 TIMESTEP=449 LAYER=  1 ZONE=  2 ACTIVE CELLS= 9995 NUMBER OF EQUATIONS=    9995
 
 SOLVING FOR HEAD 

 NO OUTPUT CONTROL FOR STRESS PERIOD    1   TIME STEP  450
 SOLVING FOR ZETA FOR LAYER     1 ZONE     2

    4462 UPPER PART EQS.      4508 LOWER PART EQS.    BAND WIDTH + 1 =  138
 INSUFFICIENT MEMORY FOR DE4 SOLVER:
 MXBW MUST BE AT LEAST  138
 
 SOLVING FOR HEAD 

 NO OUTPUT CONTROL FOR STRESS PERIOD    1   TIME STEP  451
 SOLVING FOR ZETA FOR LAYER     1 ZONE     2

    4998 UPPER PART EQS.      4997 LOWER PART EQS.    BAND WIDTH + 1 =  101
 STRESS PERIOD=  1 TIMESTEP=451 LAYER=  1 ZONE=  2 ACTIVE CELLS= 9995 NUMBER OF EQUATIONS=    9995
 
 SOLVING FOR HEAD 

 NO OUTPUT CONTROL FOR STRESS PERIOD    1   TIME STEP  452
 SOLVING FOR ZETA FOR LAYER     1 ZONE     2

    4462 UPPER PART EQS.      4511 LOWER PART EQS.    BAND WIDTH + 1 =  138
 INSUFFICIENT MEMORY FOR DE4 SOLVER:
 MXBW MUST BE AT LEAST  138
 
 SOLVING FOR HEAD 

 NO OUTPUT CONTROL FOR STRESS PERIOD    1   TIME STEP  453
 SOLVING FOR ZETA FOR LAYER     1 ZONE     2

    4998 UPPER PART EQS.      4997 LOWER PART EQS.    BAND WIDTH + 1 =  101
 STRESS PERIOD=  1 TIMESTEP=453 LAYER=  1 ZONE=  2 ACTIVE CELLS= 9995 NUMBER OF EQUATIONS=    9995
 
 SOLVING FOR HEAD 

 NO OUTPUT CONTROL FOR STRESS PERIOD    1   TIME STEP  454
 SOLVING FOR ZETA FOR LAYER     1 ZONE     2

    4461 UPPER PART EQS.      4510 LOWER PART EQS.    BAND WIDTH + 1 =  139
 INSUFFICIENT MEMORY FOR DE4 SOLVER:
 MXBW MUST BE AT LEAST  139
 
 SOLVING FOR HEAD 

 NO OUTPUT CONTROL FOR STRESS PERIOD    1   TIME STEP  455
 SOLVING FOR ZETA FOR LAYER     1 ZONE     2

    4998 UPPER PART EQS.      4997 LOWER PART EQS.    BAND WIDTH + 1 =  101
 STRESS PERIOD=  1 TIMESTEP=455 LAYER=  1 ZONE=  2 ACTIVE CELLS= 9995 NUMBER OF EQUATIONS=    9995
 
 SOLVING FOR HEAD 

 NO OUTPUT CONTROL FOR STRESS PERIOD    1   TIME STEP  456
 SOLVING FOR ZETA FOR LAYER     1 ZONE     2

    4461 UPPER PART EQS.      4508 LOWER PART EQS.    BAND WIDTH + 1 =  136
 INSUFFICIENT MEMORY FOR DE4 SOLVER:
 MXBW MUST BE AT LEAST  136
 
 SOLVING FOR HEAD 

 NO OUTPUT CONTROL FOR STRESS PERIOD    1   TIME STEP  457
 SOLVING FOR ZETA FOR LAYER     1 ZONE     2

    4998 UPPER PART EQS.      4997 LOWER PART EQS.    BAND WIDTH + 1 =  101
 STRESS PERIOD=  1 TIMESTEP=457 LAYER=  1 ZONE=  2 ACTIVE CELLS= 9995 NUMBER OF EQUATIONS=    9995
 
 SOLVING FOR HEAD 

 NO OUTPUT CONTROL FOR STRESS PERIOD    1   TIME STEP  458
 SOLVING FOR ZETA FOR LAYER     1 ZONE     2

    4460 UPPER PART EQS.      4509 LOWER PART EQS.    BAND WIDTH + 1 =  138
 INSUFFICIENT MEMORY FOR DE4 SOLVER:
 MXBW MUST BE AT LEAST  138
 
 SOLVING FOR HEAD 

 NO OUTPUT CONTROL FOR STRESS PERIOD    1   TIME STEP  459
 SOLVING FOR ZETA FOR LAYER     1 ZONE     2

    4997 UPPER PART EQS.      4997 LOWER PART EQS.    BAND WIDTH + 1 =  101
 STRESS PERIOD=  1 TIMESTEP=459 LAYER=  1 ZONE=  2 ACTIVE CELLS= 9994 NUMBER OF EQUATIONS=    9994
 
 SOLVING FOR HEAD 

 NO OUTPUT CONTROL FOR STRESS PERIOD    1   TIME STEP  460
 SOLVING FOR ZETA FOR LAYER     1 ZONE     2

    4460 UPPER PART EQS.      4510 LOWER PART EQS.    BAND WIDTH + 1 =  138
 INSUFFICIENT MEMORY FOR DE4 SOLVER:
 MXBW MUST BE AT LEAST  138
 
 SOLVING FOR HEAD 

 NO OUTPUT CONTROL FOR STRESS PERIOD    1   TIME STEP  461
 SOLVING FOR ZETA FOR LAYER     1 ZONE     2

    4997 UPPER PART EQS.      4997 LOWER PART EQS.    BAND WIDTH + 1 =  101
 STRESS PERIOD=  1 TIMESTEP=461 LAYER=  1 ZONE=  2 ACTIVE CELLS= 9994 NUMBER OF EQUATIONS=    9994
 
 SOLVING FOR HEAD 

 NO OUTPUT CONTROL FOR STRESS PERIOD    1   TIME STEP  462
 SOLVING FOR ZETA FOR LAYER     1 ZONE     2

    4463 UPPER PART EQS.      4509 LOWER PART EQS.    BAND WIDTH + 1 =  135
 INSUFFICIENT MEMORY FOR DE4 SOLVER:
 MXBW MUST BE AT LEAST  135
 
 SOLVING FOR HEAD 

 NO OUTPUT CONTROL FOR STRESS PERIOD    1   TIME STEP  463
 SOLVING FOR ZETA FOR LAYER     1 ZONE     2

    4997 UPPER PART EQS.      4997 LOWER PART EQS.    BAND WIDTH + 1 =  101
 STRESS PERIOD=  1 TIMESTEP=463 LAYER=  1 ZONE=  2 ACTIVE CELLS= 9994 NUMBER OF EQUATIONS=    9994
 
 SOLVING FOR HEAD 

 NO OUTPUT CONTROL FOR STRESS PERIOD    1   TIME STEP  464
 SOLVING FOR ZETA FOR LAYER     1 ZONE     2

    4461 UPPER PART EQS.      4511 LOWER PART EQS.    BAND WIDTH + 1 =  139
 INSUFFICIENT MEMORY FOR DE4 SOLVER:
 MXBW MUST BE AT LEAST  139
 
 SOLVING FOR HEAD 

 NO OUTPUT CONTROL FOR STRESS PERIOD    1   TIME STEP  465
 SOLVING FOR ZETA FOR LAYER     1 ZONE     2

    4996 UPPER PART EQS.      4997 LOWER PART EQS.    BAND WIDTH + 1 =  101
 STRESS PERIOD=  1 TIMESTEP=465 LAYER=  1 ZONE=  2 ACTIVE CELLS= 9993 NUMBER OF EQUATIONS=    9993
 
 SOLVING FOR HEAD 

 NO OUTPUT CONTROL FOR STRESS PERIOD    1   TIME STEP  466
 SOLVING FOR ZETA FOR LAYER     1 ZONE     2

    4462 UPPER PART EQS.      4508 LOWER PART EQS.    BAND WIDTH + 1 =  137
 INSUFFICIENT MEMORY FOR DE4 SOLVER:
 MXBW MUST BE AT LEAST  137
 
 SOLVING FOR HEAD 

 NO OUTPUT CONTROL FOR STRESS PERIOD    1   TIME STEP  467
 SOLVING FOR ZETA FOR LAYER     1 ZONE     2

    4997 UPPER PART EQS.      4996 LOWER PART EQS.    BAND WIDTH + 1 =  101
 STRESS PERIOD=  1 TIMESTEP=467 LAYER=  1 ZONE=  2 ACTIVE CELLS= 9993 NUMBER OF EQUATIONS=    9993
 
 SOLVING FOR HEAD 

 NO OUTPUT CONTROL FOR STRESS PERIOD    1   TIME STEP  468
 SOLVING FOR ZETA FOR LAYER     1 ZONE     2

    4464 UPPER PART EQS.      4511 LOWER PART EQS.    BAND WIDTH + 1 =  138
 INSUFFICIENT MEMORY FOR DE4 SOLVER:
 MXBW MUST BE AT LEAST  138
 
 SOLVING FOR HEAD 

 NO OUTPUT CONTROL FOR STRESS PERIOD    1   TIME STEP  469
 SOLVING FOR ZETA FOR LAYER     1 ZONE     2

    4997 UPPER PART EQS.      4997 LOWER PART EQS.    BAND WIDTH + 1 =  101
 STRESS PERIOD=  1 TIMESTEP=469 LAYER=  1 ZONE=  2 ACTIVE CELLS= 9994 NUMBER OF EQUATIONS=    9994
 
 SOLVING FOR HEAD 

 NO OUTPUT CONTROL FOR STRESS PERIOD    1   TIME STEP  470
 SOLVING FOR ZETA FOR LAYER     1 ZONE     2

    4464 UPPER PART EQS.      4511 LOWER PART EQS.    BAND WIDTH + 1 =  137
 INSUFFICIENT MEMORY FOR DE4 SOLVER:
 MXBW MUST BE AT LEAST  137
 
 SOLVING FOR HEAD 

 NO OUTPUT CONTROL FOR STRESS PERIOD    1   TIME STEP  471
 SOLVING FOR ZETA FOR LAYER     1 ZONE     2

    4996 UPPER PART EQS.      4996 LOWER PART EQS.    BAND WIDTH + 1 =  101
 STRESS PERIOD=  1 TIMESTEP=471 LAYER=  1 ZONE=  2 ACTIVE CELLS= 9992 NUMBER OF EQUATIONS=    9992
 
 SOLVING FOR HEAD 

 NO OUTPUT CONTROL FOR STRESS PERIOD    1   TIME STEP  472
 SOLVING FOR ZETA FOR LAYER     1 ZONE     2

    4462 UPPER PART EQS.      4514 LOWER PART EQS.    BAND WIDTH + 1 =  139
 INSUFFICIENT MEMORY FOR DE4 SOLVER:
 MXBW MUST BE AT LEAST  139
 
 SOLVING FOR HEAD 

 NO OUTPUT CONTROL FOR STRESS PERIOD    1   TIME STEP  473
 SOLVING FOR ZETA FOR LAYER     1 ZONE     2

    4997 UPPER PART EQS.      4997 LOWER PART EQS.    BAND WIDTH + 1 =  101
 STRESS PERIOD=  1 TIMESTEP=473 LAYER=  1 ZONE=  2 ACTIVE CELLS= 9994 NUMBER OF EQUATIONS=    9994
 
 SOLVING FOR HEAD 

 NO OUTPUT CONTROL FOR STRESS PERIOD    1   TIME STEP  474
 SOLVING FOR ZETA FOR LAYER     1 ZONE     2

    4459 UPPER PART EQS.      4514 LOWER PART EQS.    BAND WIDTH + 1 =  141
 INSUFFICIENT MEMORY FOR DE4 SOLVER:
 MXBW MUST BE AT LEAST  141
 
 SOLVING FOR HEAD 

 NO OUTPUT CONTROL FOR STRESS PERIOD    1   TIME STEP  475
 SOLVING FOR ZETA FOR LAYER     1 ZONE     2

    4996 UPPER PART EQS.      4996 LOWER PART EQS.    BAND WIDTH + 1 =  102
 STRESS PERIOD=  1 TIMESTEP=475 LAYER=  1 ZONE=  2 ACTIVE CELLS= 9992 NUMBER OF EQUATIONS=    9992
 
 SOLVING FOR HEAD 

 NO OUTPUT CONTROL FOR STRESS PERIOD    1   TIME STEP  476
 SOLVING FOR ZETA FOR LAYER     1 ZONE     2

    4461 UPPER PART EQS.      4518 LOWER PART EQS.    BAND WIDTH + 1 =  142
 INSUFFICIENT MEMORY FOR DE4 SOLVER:
 MXBW MUST BE AT LEAST  142
 
 SOLVING FOR HEAD 

 NO OUTPUT CONTROL FOR STRESS PERIOD    1   TIME STEP  477
 SOLVING FOR ZETA FOR LAYER     1 ZONE     2

    4996 UPPER PART EQS.      4997 LOWER PART EQS.    BAND WIDTH + 1 =  101
 STRESS PERIOD=  1 TIMESTEP=477 LAYER=  1 ZONE=  2 ACTIVE CELLS= 9993 NUMBER OF EQUATIONS=    9993
 
 SOLVING FOR HEAD 

 NO OUTPUT CONTROL FOR STRESS PERIOD    1   TIME STEP  478
 SOLVING FOR ZETA FOR LAYER     1 ZONE     2

    4461 UPPER PART EQS.      4517 LOWER PART EQS.    BAND WIDTH + 1 =  143
 INSUFFICIENT MEMORY FOR DE4 SOLVER:
 MXBW MUST BE AT LEAST  143
 
 SOLVING FOR HEAD 

 NO OUTPUT CONTROL FOR STRESS PERIOD    1   TIME STEP  479
 SOLVING FOR ZETA FOR LAYER     1 ZONE     2

    4996 UPPER PART EQS.      4997 LOWER PART EQS.    BAND WIDTH + 1 =  101
 STRESS PERIOD=  1 TIMESTEP=479 LAYER=  1 ZONE=  2 ACTIVE CELLS= 9993 NUMBER OF EQUATIONS=    9993
 
 SOLVING FOR HEAD 

 NO OUTPUT CONTROL FOR STRESS PERIOD    1   TIME STEP  480
 SOLVING FOR ZETA FOR LAYER     1 ZONE     2

    4464 UPPER PART EQS.      4515 LOWER PART EQS.    BAND WIDTH + 1 =  138
 INSUFFICIENT MEMORY FOR DE4 SOLVER:
 MXBW MUST BE AT LEAST  138
 
 SOLVING FOR HEAD 

 NO OUTPUT CONTROL FOR STRESS PERIOD    1   TIME STEP  481
 SOLVING FOR ZETA FOR LAYER     1 ZONE     2

    4996 UPPER PART EQS.      4997 LOWER PART EQS.    BAND WIDTH + 1 =  101
 STRESS PERIOD=  1 TIMESTEP=481 LAYER=  1 ZONE=  2 ACTIVE CELLS= 9993 NUMBER OF EQUATIONS=    9993
 
 SOLVING FOR HEAD 

 NO OUTPUT CONTROL FOR STRESS PERIOD    1   TIME STEP  482
 SOLVING FOR ZETA FOR LAYER     1 ZONE     2

    4463 UPPER PART EQS.      4515 LOWER PART EQS.    BAND WIDTH + 1 =  142
 INSUFFICIENT MEMORY FOR DE4 SOLVER:
 MXBW MUST BE AT LEAST  142
 
 SOLVING FOR HEAD 

 NO OUTPUT CONTROL FOR STRESS PERIOD    1   TIME STEP  483
 SOLVING FOR ZETA FOR LAYER     1 ZONE     2

    4996 UPPER PART EQS.      4997 LOWER PART EQS.    BAND WIDTH + 1 =  101
 STRESS PERIOD=  1 TIMESTEP=483 LAYER=  1 ZONE=  2 ACTIVE CELLS= 9993 NUMBER OF EQUATIONS=    9993
 
 SOLVING FOR HEAD 

 NO OUTPUT CONTROL FOR STRESS PERIOD    1   TIME STEP  484
 SOLVING FOR ZETA FOR LAYER     1 ZONE     2

    4468 UPPER PART EQS.      4513 LOWER PART EQS.    BAND WIDTH + 1 =  136
 INSUFFICIENT MEMORY FOR DE4 SOLVER:
 MXBW MUST BE AT LEAST  136
 
 SOLVING FOR HEAD 

 NO OUTPUT CONTROL FOR STRESS PERIOD    1   TIME STEP  485
 SOLVING FOR ZETA FOR LAYER     1 ZONE     2

    4997 UPPER PART EQS.      4997 LOWER PART EQS.    BAND WIDTH + 1 =  101
 STRESS PERIOD=  1 TIMESTEP=485 LAYER=  1 ZONE=  2 ACTIVE CELLS= 9994 NUMBER OF EQUATIONS=    9994
 
 SOLVING FOR HEAD 

 NO OUTPUT CONTROL FOR STRESS PERIOD    1   TIME STEP  486
 SOLVING FOR ZETA FOR LAYER     1 ZONE     2

    4462 UPPER PART EQS.      4518 LOWER PART EQS.    BAND WIDTH + 1 =  141
 INSUFFICIENT MEMORY FOR DE4 SOLVER:
 MXBW MUST BE AT LEAST  141
 
 SOLVING FOR HEAD 

 NO OUTPUT CONTROL FOR STRESS PERIOD    1   TIME STEP  487
 SOLVING FOR ZETA FOR LAYER     1 ZONE     2

    4997 UPPER PART EQS.      4997 LOWER PART EQS.    BAND WIDTH + 1 =  101
 STRESS PERIOD=  1 TIMESTEP=487 LAYER=  1 ZONE=  2 ACTIVE CELLS= 9994 NUMBER OF EQUATIONS=    9994
 
 SOLVING FOR HEAD 

 NO OUTPUT CONTROL FOR STRESS PERIOD    1   TIME STEP  488
 SOLVING FOR ZETA FOR LAYER     1 ZONE     2

    4463 UPPER PART EQS.      4519 LOWER PART EQS.    BAND WIDTH + 1 =  140
 INSUFFICIENT MEMORY FOR DE4 SOLVER:
 MXBW MUST BE AT LEAST  140
 
 SOLVING FOR HEAD 

 NO OUTPUT CONTROL FOR STRESS PERIOD    1   TIME STEP  489
 SOLVING FOR ZETA FOR LAYER     1 ZONE     2

    4997 UPPER PART EQS.      4995 LOWER PART EQS.    BAND WIDTH + 1 =  101
 STRESS PERIOD=  1 TIMESTEP=489 LAYER=  1 ZONE=  2 ACTIVE CELLS= 9992 NUMBER OF EQUATIONS=    9992
 
 SOLVING FOR HEAD 

 NO OUTPUT CONTROL FOR STRESS PERIOD    1   TIME STEP  490
 SOLVING FOR ZETA FOR LAYER     1 ZONE     2

    4462 UPPER PART EQS.      4520 LOWER PART EQS.    BAND WIDTH + 1 =  141
 INSUFFICIENT MEMORY FOR DE4 SOLVER:
 MXBW MUST BE AT LEAST  141
 
 SOLVING FOR HEAD 

 NO OUTPUT CONTROL FOR STRESS PERIOD    1   TIME STEP  491
 SOLVING FOR ZETA FOR LAYER     1 ZONE     2

    4996 UPPER PART EQS.      4997 LOWER PART EQS.    BAND WIDTH + 1 =  101
 STRESS PERIOD=  1 TIMESTEP=491 LAYER=  1 ZONE=  2 ACTIVE CELLS= 9993 NUMBER OF EQUATIONS=    9993
 
 SOLVING FOR HEAD 

 NO OUTPUT CONTROL FOR STRESS PERIOD    1   TIME STEP  492
 SOLVING FOR ZETA FOR LAYER     1 ZONE     2

    4463 UPPER PART EQS.      4520 LOWER PART EQS.    BAND WIDTH + 1 =  139
 INSUFFICIENT MEMORY FOR DE4 SOLVER:
 MXBW MUST BE AT LEAST  139
 
 SOLVING FOR HEAD 

 NO OUTPUT CONTROL FOR STRESS PERIOD    1   TIME STEP  493
 SOLVING FOR ZETA FOR LAYER     1 ZONE     2

    4997 UPPER PART EQS.      4997 LOWER PART EQS.    BAND WIDTH + 1 =  101
 STRESS PERIOD=  1 TIMESTEP=493 LAYER=  1 ZONE=  2 ACTIVE CELLS= 9994 NUMBER OF EQUATIONS=    9994
 
 SOLVING FOR HEAD 

 NO OUTPUT CONTROL FOR STRESS PERIOD    1   TIME STEP  494
 SOLVING FOR ZETA FOR LAYER     1 ZONE     2

    4462 UPPER PART EQS.      4521 LOWER PART EQS.    BAND WIDTH + 1 =  142
 INSUFFICIENT MEMORY FOR DE4 SOLVER:
 MXBW MUST BE AT LEAST  142
 
 SOLVING FOR HEAD 

 NO OUTPUT CONTROL FOR STRESS PERIOD    1   TIME STEP  495
 SOLVING FOR ZETA FOR LAYER     1 ZONE     2

    4996 UPPER PART EQS.      4997 LOWER PART EQS.    BAND WIDTH + 1 =  101
 STRESS PERIOD=  1 TIMESTEP=495 LAYER=  1 ZONE=  2 ACTIVE CELLS= 9993 NUMBER OF EQUATIONS=    9993
 
 SOLVING FOR HEAD 

 NO OUTPUT CONTROL FOR STRESS PERIOD    1   TIME STEP  496
 SOLVING FOR ZETA FOR LAYER     1 ZONE     2

    4464 UPPER PART EQS.      4519 LOWER PART EQS.    BAND WIDTH + 1 =  139
 INSUFFICIENT MEMORY FOR DE4 SOLVER:
 MXBW MUST BE AT LEAST  139
 
 SOLVING FOR HEAD 

 NO OUTPUT CONTROL FOR STRESS PERIOD    1   TIME STEP  497
 SOLVING FOR ZETA FOR LAYER     1 ZONE     2

    4997 UPPER PART EQS.      4997 LOWER PART EQS.    BAND WIDTH + 1 =  101
 STRESS PERIOD=  1 TIMESTEP=497 LAYER=  1 ZONE=  2 ACTIVE CELLS= 9994 NUMBER OF EQUATIONS=    9994
 
 SOLVING FOR HEAD 

 NO OUTPUT CONTROL FOR STRESS PERIOD    1   TIME STEP  498
 SOLVING FOR ZETA FOR LAYER     1 ZONE     2

    4462 UPPER PART EQS.      4522 LOWER PART EQS.    BAND WIDTH + 1 =  144
 INSUFFICIENT MEMORY FOR DE4 SOLVER:
 MXBW MUST BE AT LEAST  144
 
 SOLVING FOR HEAD 

 NO OUTPUT CONTROL FOR STRESS PERIOD    1   TIME STEP  499
 SOLVING FOR ZETA FOR LAYER     1 ZONE     2

    4998 UPPER PART EQS.      4997 LOWER PART EQS.    BAND WIDTH + 1 =  101
 STRESS PERIOD=  1 TIMESTEP=499 LAYER=  1 ZONE=  2 ACTIVE CELLS= 9995 NUMBER OF EQUATIONS=    9995
 
 SOLVING FOR HEAD 

 NO OUTPUT CONTROL FOR STRESS PERIOD    1   TIME STEP  500
 SOLVING FOR ZETA FOR LAYER     1 ZONE     2

    4462 UPPER PART EQS.      4521 LOWER PART EQS.    BAND WIDTH + 1 =  144
 INSUFFICIENT MEMORY FOR DE4 SOLVER:
 MXBW MUST BE AT LEAST  144
 
 SOLVING FOR HEAD 

 NO OUTPUT CONTROL FOR STRESS PERIOD    1   TIME STEP  501
 SOLVING FOR ZETA FOR LAYER     1 ZONE     2

    4998 UPPER PART EQS.      4997 LOWER PART EQS.    BAND WIDTH + 1 =  101
 STRESS PERIOD=  1 TIMESTEP=501 LAYER=  1 ZONE=  2 ACTIVE CELLS= 9995 NUMBER OF EQUATIONS=    9995
 
 SOLVING FOR HEAD 

 NO OUTPUT CONTROL FOR STRESS PERIOD    1   TIME STEP  502
 SOLVING FOR ZETA FOR LAYER     1 ZONE     2

    4456 UPPER PART EQS.      4520 LOWER PART EQS.    BAND WIDTH + 1 =  149
 INSUFFICIENT MEMORY FOR DE4 SOLVER:
 MXBW MUST BE AT LEAST  149
 
 SOLVING FOR HEAD 

 NO OUTPUT CONTROL FOR STRESS PERIOD    1   TIME STEP  503
 SOLVING FOR ZETA FOR LAYER     1 ZONE     2

    4998 UPPER PART EQS.      4997 LOWER PART EQS.    BAND WIDTH + 1 =  101
 STRESS PERIOD=  1 TIMESTEP=503 LAYER=  1 ZONE=  2 ACTIVE CELLS= 9995 NUMBER OF EQUATIONS=    9995
 
 SOLVING FOR HEAD 

 NO OUTPUT CONTROL FOR STRESS PERIOD    1   TIME STEP  504
 SOLVING FOR ZETA FOR LAYER     1 ZONE     2

    4462 UPPER PART EQS.      4519 LOWER PART EQS.    BAND WIDTH + 1 =  142
 INSUFFICIENT MEMORY FOR DE4 SOLVER:
 MXBW MUST BE AT LEAST  142
 
 SOLVING FOR HEAD 

 NO OUTPUT CONTROL FOR STRESS PERIOD    1   TIME STEP  505
 SOLVING FOR ZETA FOR LAYER     1 ZONE     2

    4998 UPPER PART EQS.      4997 LOWER PART EQS.    BAND WIDTH + 1 =  101
 STRESS PERIOD=  1 TIMESTEP=505 LAYER=  1 ZONE=  2 ACTIVE CELLS= 9995 NUMBER OF EQUATIONS=    9995
 
 SOLVING FOR HEAD 

 NO OUTPUT CONTROL FOR STRESS PERIOD    1   TIME STEP  506
 SOLVING FOR ZETA FOR LAYER     1 ZONE     2

    4459 UPPER PART EQS.      4518 LOWER PART EQS.    BAND WIDTH + 1 =  145
 INSUFFICIENT MEMORY FOR DE4 SOLVER:
 MXBW MUST BE AT LEAST  145
 
 SOLVING FOR HEAD 

 NO OUTPUT CONTROL FOR STRESS PERIOD    1   TIME STEP  507
 SOLVING FOR ZETA FOR LAYER     1 ZONE     2

    4998 UPPER PART EQS.      4997 LOWER PART EQS.    BAND WIDTH + 1 =  101
 STRESS PERIOD=  1 TIMESTEP=507 LAYER=  1 ZONE=  2 ACTIVE CELLS= 9995 NUMBER OF EQUATIONS=    9995
 
 SOLVING FOR HEAD 

 NO OUTPUT CONTROL FOR STRESS PERIOD    1   TIME STEP  508
 SOLVING FOR ZETA FOR LAYER     1 ZONE     2

    4466 UPPER PART EQS.      4518 LOWER PART EQS.    BAND WIDTH + 1 =  142
 INSUFFICIENT MEMORY FOR DE4 SOLVER:
 MXBW MUST BE AT LEAST  142
 
 SOLVING FOR HEAD 

 NO OUTPUT CONTROL FOR STRESS PERIOD    1   TIME STEP  509
 SOLVING FOR ZETA FOR LAYER     1 ZONE     2

    4998 UPPER PART EQS.      4996 LOWER PART EQS.    BAND WIDTH + 1 =  101
 STRESS PERIOD=  1 TIMESTEP=509 LAYER=  1 ZONE=  2 ACTIVE CELLS= 9994 NUMBER OF EQUATIONS=    9994
 
 SOLVING FOR HEAD 

 NO OUTPUT CONTROL FOR STRESS PERIOD    1   TIME STEP  510
 SOLVING FOR ZETA FOR LAYER     1 ZONE     2

    4466 UPPER PART EQS.      4520 LOWER PART EQS.    BAND WIDTH + 1 =  143
 INSUFFICIENT MEMORY FOR DE4 SOLVER:
 MXBW MUST BE AT LEAST  143
 
 SOLVING FOR HEAD 

 NO OUTPUT CONTROL FOR STRESS PERIOD    1   TIME STEP  511
 SOLVING FOR ZETA FOR LAYER     1 ZONE     2

    4998 UPPER PART EQS.      4997 LOWER PART EQS.    BAND WIDTH + 1 =  101
 STRESS PERIOD=  1 TIMESTEP=511 LAYER=  1 ZONE=  2 ACTIVE CELLS= 9995 NUMBER OF EQUATIONS=    9995
 
 SOLVING FOR HEAD 

 NO OUTPUT CONTROL FOR STRESS PERIOD    1   TIME STEP  512
 SOLVING FOR ZETA FOR LAYER     1 ZONE     2

    4469 UPPER PART EQS.      4518 LOWER PART EQS.    BAND WIDTH + 1 =  138
 INSUFFICIENT MEMORY FOR DE4 SOLVER:
 MXBW MUST BE AT LEAST  138
 
 SOLVING FOR HEAD 

 NO OUTPUT CONTROL FOR STRESS PERIOD    1   TIME STEP  513
 SOLVING FOR ZETA FOR LAYER     1 ZONE     2

    4998 UPPER PART EQS.      4997 LOWER PART EQS.    BAND WIDTH + 1 =  101
 STRESS PERIOD=  1 TIMESTEP=513 LAYER=  1 ZONE=  2 ACTIVE CELLS= 9995 NUMBER OF EQUATIONS=    9995
 
 SOLVING FOR HEAD 

 NO OUTPUT CONTROL FOR STRESS PERIOD    1   TIME STEP  514
 SOLVING FOR ZETA FOR LAYER     1 ZONE     2

    4467 UPPER PART EQS.      4520 LOWER PART EQS.    BAND WIDTH + 1 =  142
 INSUFFICIENT MEMORY FOR DE4 SOLVER:
 MXBW MUST BE AT LEAST  142
 
 SOLVING FOR HEAD 

 NO OUTPUT CONTROL FOR STRESS PERIOD    1   TIME STEP  515
 SOLVING FOR ZETA FOR LAYER     1 ZONE     2

    4998 UPPER PART EQS.      4996 LOWER PART EQS.    BAND WIDTH + 1 =  101
 STRESS PERIOD=  1 TIMESTEP=515 LAYER=  1 ZONE=  2 ACTIVE CELLS= 9994 NUMBER OF EQUATIONS=    9994
 
 SOLVING FOR HEAD 

 NO OUTPUT CONTROL FOR STRESS PERIOD    1   TIME STEP  516
 SOLVING FOR ZETA FOR LAYER     1 ZONE     2

    4466 UPPER PART EQS.      4521 LOWER PART EQS.    BAND WIDTH + 1 =  144
 INSUFFICIENT MEMORY FOR DE4 SOLVER:
 MXBW MUST BE AT LEAST  144
 
 SOLVING FOR HEAD 

 NO OUTPUT CONTROL FOR STRESS PERIOD    1   TIME STEP  517
 SOLVING FOR ZETA FOR LAYER     1 ZONE     2

    4998 UPPER PART EQS.      4997 LOWER PART EQS.    BAND WIDTH + 1 =  101
 STRESS PERIOD=  1 TIMESTEP=517 LAYER=  1 ZONE=  2 ACTIVE CELLS= 9995 NUMBER OF EQUATIONS=    9995
 
 SOLVING FOR HEAD 

 NO OUTPUT CONTROL FOR STRESS PERIOD    1   TIME STEP  518
 SOLVING FOR ZETA FOR LAYER     1 ZONE     2

    4465 UPPER PART EQS.      4520 LOWER PART EQS.    BAND WIDTH + 1 =  144
 INSUFFICIENT MEMORY FOR DE4 SOLVER:
 MXBW MUST BE AT LEAST  144
 
 SOLVING FOR HEAD 

 NO OUTPUT CONTROL FOR STRESS PERIOD    1   TIME STEP  519
 SOLVING FOR ZETA FOR LAYER     1 ZONE     2

    4998 UPPER PART EQS.      4996 LOWER PART EQS.    BAND WIDTH + 1 =  101
 STRESS PERIOD=  1 TIMESTEP=519 LAYER=  1 ZONE=  2 ACTIVE CELLS= 9994 NUMBER OF EQUATIONS=    9994
 
 SOLVING FOR HEAD 

 NO OUTPUT CONTROL FOR STRESS PERIOD    1   TIME STEP  520
 SOLVING FOR ZETA FOR LAYER     1 ZONE     2

    4463 UPPER PART EQS.      4521 LOWER PART EQS.    BAND WIDTH + 1 =  147
 INSUFFICIENT MEMORY FOR DE4 SOLVER:
 MXBW MUST BE AT LEAST  147
 
 SOLVING FOR HEAD 

 NO OUTPUT CONTROL FOR STRESS PERIOD    1   TIME STEP  521
 SOLVING FOR ZETA FOR LAYER     1 ZONE     2

    4998 UPPER PART EQS.      4996 LOWER PART EQS.    BAND WIDTH + 1 =  101
 STRESS PERIOD=  1 TIMESTEP=521 LAYER=  1 ZONE=  2 ACTIVE CELLS= 9994 NUMBER OF EQUATIONS=    9994
 
 SOLVING FOR HEAD 

 NO OUTPUT CONTROL FOR STRESS PERIOD    1   TIME STEP  522
 SOLVING FOR ZETA FOR LAYER     1 ZONE     2

    4462 UPPER PART EQS.      4523 LOWER PART EQS.    BAND WIDTH + 1 =  147
 INSUFFICIENT MEMORY FOR DE4 SOLVER:
 MXBW MUST BE AT LEAST  147
 
 SOLVING FOR HEAD 

 NO OUTPUT CONTROL FOR STRESS PERIOD    1   TIME STEP  523
 SOLVING FOR ZETA FOR LAYER     1 ZONE     2

    4998 UPPER PART EQS.      4996 LOWER PART EQS.    BAND WIDTH + 1 =  101
 STRESS PERIOD=  1 TIMESTEP=523 LAYER=  1 ZONE=  2 ACTIVE CELLS= 9994 NUMBER OF EQUATIONS=    9994
 
 SOLVING FOR HEAD 

 NO OUTPUT CONTROL FOR STRESS PERIOD    1   TIME STEP  524
 SOLVING FOR ZETA FOR LAYER     1 ZONE     2

    4460 UPPER PART EQS.      4525 LOWER PART EQS.    BAND WIDTH + 1 =  150
 INSUFFICIENT MEMORY FOR DE4 SOLVER:
 MXBW MUST BE AT LEAST  150
 
 SOLVING FOR HEAD 

 NO OUTPUT CONTROL FOR STRESS PERIOD    1   TIME STEP  525
 SOLVING FOR ZETA FOR LAYER     1 ZONE     2

    4998 UPPER PART EQS.      4996 LOWER PART EQS.    BAND WIDTH + 1 =  101
 STRESS PERIOD=  1 TIMESTEP=525 LAYER=  1 ZONE=  2 ACTIVE CELLS= 9994 NUMBER OF EQUATIONS=    9994
 
 SOLVING FOR HEAD 

 NO OUTPUT CONTROL FOR STRESS PERIOD    1   TIME STEP  526
 SOLVING FOR ZETA FOR LAYER     1 ZONE     2

    4466 UPPER PART EQS.      4524 LOWER PART EQS.    BAND WIDTH + 1 =  148
 INSUFFICIENT MEMORY FOR DE4 SOLVER:
 MXBW MUST BE AT LEAST  148
 
 SOLVING FOR HEAD 

 NO OUTPUT CONTROL FOR STRESS PERIOD    1   TIME STEP  527
 SOLVING FOR ZETA FOR LAYER     1 ZONE     2

    4998 UPPER PART EQS.      4997 LOWER PART EQS.    BAND WIDTH + 1 =  101
 STRESS PERIOD=  1 TIMESTEP=527 LAYER=  1 ZONE=  2 ACTIVE CELLS= 9995 NUMBER OF EQUATIONS=    9995
 
 SOLVING FOR HEAD 

 NO OUTPUT CONTROL FOR STRESS PERIOD    1   TIME STEP  528
 SOLVING FOR ZETA FOR LAYER     1 ZONE     2

    4464 UPPER PART EQS.      4522 LOWER PART EQS.    BAND WIDTH + 1 =  148
 INSUFFICIENT MEMORY FOR DE4 SOLVER:
 MXBW MUST BE AT LEAST  148
 
 SOLVING FOR HEAD 

 NO OUTPUT CONTROL FOR STRESS PERIOD    1   TIME STEP  529
 SOLVING FOR ZETA FOR LAYER     1 ZONE     2

    4998 UPPER PART EQS.      4997 LOWER PART EQS.    BAND WIDTH + 1 =  101
 STRESS PERIOD=  1 TIMESTEP=529 LAYER=  1 ZONE=  2 ACTIVE CELLS= 9995 NUMBER OF EQUATIONS=    9995
 
 SOLVING FOR HEAD 

 NO OUTPUT CONTROL FOR STRESS PERIOD    1   TIME STEP  530
 SOLVING FOR ZETA FOR LAYER     1 ZONE     2

    4466 UPPER PART EQS.      4521 LOWER PART EQS.    BAND WIDTH + 1 =  145
 INSUFFICIENT MEMORY FOR DE4 SOLVER:
 MXBW MUST BE AT LEAST  145
 
 SOLVING FOR HEAD 

 NO OUTPUT CONTROL FOR STRESS PERIOD    1   TIME STEP  531
 SOLVING FOR ZETA FOR LAYER     1 ZONE     2

    4998 UPPER PART EQS.      4997 LOWER PART EQS.    BAND WIDTH + 1 =  101
 STRESS PERIOD=  1 TIMESTEP=531 LAYER=  1 ZONE=  2 ACTIVE CELLS= 9995 NUMBER OF EQUATIONS=    9995
 
 SOLVING FOR HEAD 

 NO OUTPUT CONTROL FOR STRESS PERIOD    1   TIME STEP  532
 SOLVING FOR ZETA FOR LAYER     1 ZONE     2

    4467 UPPER PART EQS.      4520 LOWER PART EQS.    BAND WIDTH + 1 =  144
 INSUFFICIENT MEMORY FOR DE4 SOLVER:
 MXBW MUST BE AT LEAST  144
 
 SOLVING FOR HEAD 

 NO OUTPUT CONTROL FOR STRESS PERIOD    1   TIME STEP  533
 SOLVING FOR ZETA FOR LAYER     1 ZONE     2

    4998 UPPER PART EQS.      4997 LOWER PART EQS.    BAND WIDTH + 1 =  101
 STRESS PERIOD=  1 TIMESTEP=533 LAYER=  1 ZONE=  2 ACTIVE CELLS= 9995 NUMBER OF EQUATIONS=    9995
 
 SOLVING FOR HEAD 

 NO OUTPUT CONTROL FOR STRESS PERIOD    1   TIME STEP  534
 SOLVING FOR ZETA FOR LAYER     1 ZONE     2

    4465 UPPER PART EQS.      4519 LOWER PART EQS.    BAND WIDTH + 1 =  144
 INSUFFICIENT MEMORY FOR DE4 SOLVER:
 MXBW MUST BE AT LEAST  144
 
 SOLVING FOR HEAD 

 NO OUTPUT CONTROL FOR STRESS PERIOD    1   TIME STEP  535
 SOLVING FOR ZETA FOR LAYER     1 ZONE     2

    4998 UPPER PART EQS.      4997 LOWER PART EQS.    BAND WIDTH + 1 =  101
 STRESS PERIOD=  1 TIMESTEP=535 LAYER=  1 ZONE=  2 ACTIVE CELLS= 9995 NUMBER OF EQUATIONS=    9995
 
 SOLVING FOR HEAD 

 NO OUTPUT CONTROL FOR STRESS PERIOD    1   TIME STEP  536
 SOLVING FOR ZETA FOR LAYER     1 ZONE     2

    4465 UPPER PART EQS.      4519 LOWER PART EQS.    BAND WIDTH + 1 =  144
 INSUFFICIENT MEMORY FOR DE4 SOLVER:
 MXBW MUST BE AT LEAST  144
 
 SOLVING FOR HEAD 

 NO OUTPUT CONTROL FOR STRESS PERIOD    1   TIME STEP  537
 SOLVING FOR ZETA FOR LAYER     1 ZONE     2

    4998 UPPER PART EQS.      4996 LOWER PART EQS.    BAND WIDTH + 1 =  102
 STRESS PERIOD=  1 TIMESTEP=537 LAYER=  1 ZONE=  2 ACTIVE CELLS= 9994 NUMBER OF EQUATIONS=    9994
 
 SOLVING FOR HEAD 

 NO OUTPUT CONTROL FOR STRESS PERIOD    1   TIME STEP  538
 SOLVING FOR ZETA FOR LAYER     1 ZONE     2

    4464 UPPER PART EQS.      4517 LOWER PART EQS.    BAND WIDTH + 1 =  142
 INSUFFICIENT MEMORY FOR DE4 SOLVER:
 MXBW MUST BE AT LEAST  142
 
 SOLVING FOR HEAD 

 NO OUTPUT CONTROL FOR STRESS PERIOD    1   TIME STEP  539
 SOLVING FOR ZETA FOR LAYER     1 ZONE     2

    4998 UPPER PART EQS.      4997 LOWER PART EQS.    BAND WIDTH + 1 =  101
 STRESS PERIOD=  1 TIMESTEP=539 LAYER=  1 ZONE=  2 ACTIVE CELLS= 9995 NUMBER OF EQUATIONS=    9995
 
 SOLVING FOR HEAD 

 NO OUTPUT CONTROL FOR STRESS PERIOD    1   TIME STEP  540
 SOLVING FOR ZETA FOR LAYER     1 ZONE     2

    4467 UPPER PART EQS.      4518 LOWER PART EQS.    BAND WIDTH + 1 =  140
 INSUFFICIENT MEMORY FOR DE4 SOLVER:
 MXBW MUST BE AT LEAST  140
 
 SOLVING FOR HEAD 

 NO OUTPUT CONTROL FOR STRESS PERIOD    1   TIME STEP  541
 SOLVING FOR ZETA FOR LAYER     1 ZONE     2

    4998 UPPER PART EQS.      4997 LOWER PART EQS.    BAND WIDTH + 1 =  101
 STRESS PERIOD=  1 TIMESTEP=541 LAYER=  1 ZONE=  2 ACTIVE CELLS= 9995 NUMBER OF EQUATIONS=    9995
 
 SOLVING FOR HEAD 

 NO OUTPUT CONTROL FOR STRESS PERIOD    1   TIME STEP  542
 SOLVING FOR ZETA FOR LAYER     1 ZONE     2

    4463 UPPER PART EQS.      4517 LOWER PART EQS.    BAND WIDTH + 1 =  141
 INSUFFICIENT MEMORY FOR DE4 SOLVER:
 MXBW MUST BE AT LEAST  141
 
 SOLVING FOR HEAD 

 NO OUTPUT CONTROL FOR STRESS PERIOD    1   TIME STEP  543
 SOLVING FOR ZETA FOR LAYER     1 ZONE     2

    4998 UPPER PART EQS.      4997 LOWER PART EQS.    BAND WIDTH + 1 =  101
 STRESS PERIOD=  1 TIMESTEP=543 LAYER=  1 ZONE=  2 ACTIVE CELLS= 9995 NUMBER OF EQUATIONS=    9995
 
 SOLVING FOR HEAD 

 NO OUTPUT CONTROL FOR STRESS PERIOD    1   TIME STEP  544
 SOLVING FOR ZETA FOR LAYER     1 ZONE     2

    4470 UPPER PART EQS.      4519 LOWER PART EQS.    BAND WIDTH + 1 =  140
 INSUFFICIENT MEMORY FOR DE4 SOLVER:
 MXBW MUST BE AT LEAST  140
 
 SOLVING FOR HEAD 

 NO OUTPUT CONTROL FOR STRESS PERIOD    1   TIME STEP  545
 SOLVING FOR ZETA FOR LAYER     1 ZONE     2

    4997 UPPER PART EQS.      4997 LOWER PART EQS.    BAND WIDTH + 1 =  101
 STRESS PERIOD=  1 TIMESTEP=545 LAYER=  1 ZONE=  2 ACTIVE CELLS= 9994 NUMBER OF EQUATIONS=    9994
 
 SOLVING FOR HEAD 

 NO OUTPUT CONTROL FOR STRESS PERIOD    1   TIME STEP  546
 SOLVING FOR ZETA FOR LAYER     1 ZONE     2

    4467 UPPER PART EQS.      4517 LOWER PART EQS.    BAND WIDTH + 1 =  141
 INSUFFICIENT MEMORY FOR DE4 SOLVER:
 MXBW MUST BE AT LEAST  141
 
 SOLVING FOR HEAD 

 NO OUTPUT CONTROL FOR STRESS PERIOD    1   TIME STEP  547
 SOLVING FOR ZETA FOR LAYER     1 ZONE     2

    4995 UPPER PART EQS.      4997 LOWER PART EQS.    BAND WIDTH + 1 =  101
 STRESS PERIOD=  1 TIMESTEP=547 LAYER=  1 ZONE=  2 ACTIVE CELLS= 9992 NUMBER OF EQUATIONS=    9992
 
 SOLVING FOR HEAD 

 NO OUTPUT CONTROL FOR STRESS PERIOD    1   TIME STEP  548
 SOLVING FOR ZETA FOR LAYER     1 ZONE     2

    4471 UPPER PART EQS.      4517 LOWER PART EQS.    BAND WIDTH + 1 =  140
 INSUFFICIENT MEMORY FOR DE4 SOLVER:
 MXBW MUST BE AT LEAST  140
 
 SOLVING FOR HEAD 

 NO OUTPUT CONTROL FOR STRESS PERIOD    1   TIME STEP  549
 SOLVING FOR ZETA FOR LAYER     1 ZONE     2

    4997 UPPER PART EQS.      4997 LOWER PART EQS.    BAND WIDTH + 1 =  101
 STRESS PERIOD=  1 TIMESTEP=549 LAYER=  1 ZONE=  2 ACTIVE CELLS= 9994 NUMBER OF EQUATIONS=    9994
 
 SOLVING FOR HEAD 

 NO OUTPUT CONTROL FOR STRESS PERIOD    1   TIME STEP  550
 SOLVING FOR ZETA FOR LAYER     1 ZONE     2

    4466 UPPER PART EQS.      4513 LOWER PART EQS.    BAND WIDTH + 1 =  139
 INSUFFICIENT MEMORY FOR DE4 SOLVER:
 MXBW MUST BE AT LEAST  139
 
 SOLVING FOR HEAD 

 NO OUTPUT CONTROL FOR STRESS PERIOD    1   TIME STEP  551
 SOLVING FOR ZETA FOR LAYER     1 ZONE     2

    4996 UPPER PART EQS.      4997 LOWER PART EQS.    BAND WIDTH + 1 =  101
 STRESS PERIOD=  1 TIMESTEP=551 LAYER=  1 ZONE=  2 ACTIVE CELLS= 9993 NUMBER OF EQUATIONS=    9993
 
 SOLVING FOR HEAD 

 NO OUTPUT CONTROL FOR STRESS PERIOD    1   TIME STEP  552
 SOLVING FOR ZETA FOR LAYER     1 ZONE     2

    4472 UPPER PART EQS.      4516 LOWER PART EQS.    BAND WIDTH + 1 =  137
 INSUFFICIENT MEMORY FOR DE4 SOLVER:
 MXBW MUST BE AT LEAST  137
 
 SOLVING FOR HEAD 

 NO OUTPUT CONTROL FOR STRESS PERIOD    1   TIME STEP  553
 SOLVING FOR ZETA FOR LAYER     1 ZONE     2

    4996 UPPER PART EQS.      4995 LOWER PART EQS.    BAND WIDTH + 1 =  101
 STRESS PERIOD=  1 TIMESTEP=553 LAYER=  1 ZONE=  2 ACTIVE CELLS= 9991 NUMBER OF EQUATIONS=    9991
 
 SOLVING FOR HEAD 

 NO OUTPUT CONTROL FOR STRESS PERIOD    1   TIME STEP  554
 SOLVING FOR ZETA FOR LAYER     1 ZONE     2

    4465 UPPER PART EQS.      4516 LOWER PART EQS.    BAND WIDTH + 1 =  141
 INSUFFICIENT MEMORY FOR DE4 SOLVER:
 MXBW MUST BE AT LEAST  141
 
 SOLVING FOR HEAD 

 NO OUTPUT CONTROL FOR STRESS PERIOD    1   TIME STEP  555
 SOLVING FOR ZETA FOR LAYER     1 ZONE     2

    4996 UPPER PART EQS.      4997 LOWER PART EQS.    BAND WIDTH + 1 =  101
 STRESS PERIOD=  1 TIMESTEP=555 LAYER=  1 ZONE=  2 ACTIVE CELLS= 9993 NUMBER OF EQUATIONS=    9993
 
 SOLVING FOR HEAD 

 NO OUTPUT CONTROL FOR STRESS PERIOD    1   TIME STEP  556
 SOLVING FOR ZETA FOR LAYER     1 ZONE     2

    4466 UPPER PART EQS.      4512 LOWER PART EQS.    BAND WIDTH + 1 =  139
 INSUFFICIENT MEMORY FOR DE4 SOLVER:
 MXBW MUST BE AT LEAST  139
 
 SOLVING FOR HEAD 

 NO OUTPUT CONTROL FOR STRESS PERIOD    1   TIME STEP  557
 SOLVING FOR ZETA FOR LAYER     1 ZONE     2

    4996 UPPER PART EQS.      4996 LOWER PART EQS.    BAND WIDTH + 1 =  101
 STRESS PERIOD=  1 TIMESTEP=557 LAYER=  1 ZONE=  2 ACTIVE CELLS= 9992 NUMBER OF EQUATIONS=    9992
 
 SOLVING FOR HEAD 

 NO OUTPUT CONTROL FOR STRESS PERIOD    1   TIME STEP  558
 SOLVING FOR ZETA FOR LAYER     1 ZONE     2

    4466 UPPER PART EQS.      4510 LOWER PART EQS.    BAND WIDTH + 1 =  138
 INSUFFICIENT MEMORY FOR DE4 SOLVER:
 MXBW MUST BE AT LEAST  138
 
 SOLVING FOR HEAD 

 NO OUTPUT CONTROL FOR STRESS PERIOD    1   TIME STEP  559
 SOLVING FOR ZETA FOR LAYER     1 ZONE     2

    4996 UPPER PART EQS.      4997 LOWER PART EQS.    BAND WIDTH + 1 =  101
 STRESS PERIOD=  1 TIMESTEP=559 LAYER=  1 ZONE=  2 ACTIVE CELLS= 9993 NUMBER OF EQUATIONS=    9993
 
 SOLVING FOR HEAD 

 NO OUTPUT CONTROL FOR STRESS PERIOD    1   TIME STEP  560
 SOLVING FOR ZETA FOR LAYER     1 ZONE     2

    4467 UPPER PART EQS.      4512 LOWER PART EQS.    BAND WIDTH + 1 =  139
 INSUFFICIENT MEMORY FOR DE4 SOLVER:
 MXBW MUST BE AT LEAST  139
 
 SOLVING FOR HEAD 

 NO OUTPUT CONTROL FOR STRESS PERIOD    1   TIME STEP  561
 SOLVING FOR ZETA FOR LAYER     1 ZONE     2

    4996 UPPER PART EQS.      4997 LOWER PART EQS.    BAND WIDTH + 1 =  101
 STRESS PERIOD=  1 TIMESTEP=561 LAYER=  1 ZONE=  2 ACTIVE CELLS= 9993 NUMBER OF EQUATIONS=    9993
 
 SOLVING FOR HEAD 

 NO OUTPUT CONTROL FOR STRESS PERIOD    1   TIME STEP  562
 SOLVING FOR ZETA FOR LAYER     1 ZONE     2

    4462 UPPER PART EQS.      4512 LOWER PART EQS.    BAND WIDTH + 1 =  141
 INSUFFICIENT MEMORY FOR DE4 SOLVER:
 MXBW MUST BE AT LEAST  141
 
 SOLVING FOR HEAD 

 NO OUTPUT CONTROL FOR STRESS PERIOD    1   TIME STEP  563
 SOLVING FOR ZETA FOR LAYER     1 ZONE     2

    4995 UPPER PART EQS.      4997 LOWER PART EQS.    BAND WIDTH + 1 =  101
 STRESS PERIOD=  1 TIMESTEP=563 LAYER=  1 ZONE=  2 ACTIVE CELLS= 9992 NUMBER OF EQUATIONS=    9992
 
 SOLVING FOR HEAD 

 NO OUTPUT CONTROL FOR STRESS PERIOD    1   TIME STEP  564
 SOLVING FOR ZETA FOR LAYER     1 ZONE     2

    4462 UPPER PART EQS.      4513 LOWER PART EQS.    BAND WIDTH + 1 =  142
 INSUFFICIENT MEMORY FOR DE4 SOLVER:
 MXBW MUST BE AT LEAST  142
 
 SOLVING FOR HEAD 

 NO OUTPUT CONTROL FOR STRESS PERIOD    1   TIME STEP  565
 SOLVING FOR ZETA FOR LAYER     1 ZONE     2

    4995 UPPER PART EQS.      4997 LOWER PART EQS.    BAND WIDTH + 1 =  101
 STRESS PERIOD=  1 TIMESTEP=565 LAYER=  1 ZONE=  2 ACTIVE CELLS= 9992 NUMBER OF EQUATIONS=    9992
 
 SOLVING FOR HEAD 

 NO OUTPUT CONTROL FOR STRESS PERIOD    1   TIME STEP  566
 SOLVING FOR ZETA FOR LAYER     1 ZONE     2

    4456 UPPER PART EQS.      4511 LOWER PART EQS.    BAND WIDTH + 1 =  144
 INSUFFICIENT MEMORY FOR DE4 SOLVER:
 MXBW MUST BE AT LEAST  144
 
 SOLVING FOR HEAD 

 NO OUTPUT CONTROL FOR STRESS PERIOD    1   TIME STEP  567
 SOLVING FOR ZETA FOR LAYER     1 ZONE     2

    4995 UPPER PART EQS.      4997 LOWER PART EQS.    BAND WIDTH + 1 =  101
 STRESS PERIOD=  1 TIMESTEP=567 LAYER=  1 ZONE=  2 ACTIVE CELLS= 9992 NUMBER OF EQUATIONS=    9992
 
 SOLVING FOR HEAD 

 NO OUTPUT CONTROL FOR STRESS PERIOD    1   TIME STEP  568
 SOLVING FOR ZETA FOR LAYER     1 ZONE     2

    4456 UPPER PART EQS.      4513 LOWER PART EQS.    BAND WIDTH + 1 =  148
 INSUFFICIENT MEMORY FOR DE4 SOLVER:
 MXBW MUST BE AT LEAST  148
 
 SOLVING FOR HEAD 

 NO OUTPUT CONTROL FOR STRESS PERIOD    1   TIME STEP  569
 SOLVING FOR ZETA FOR LAYER     1 ZONE     2

    4995 UPPER PART EQS.      4995 LOWER PART EQS.    BAND WIDTH + 1 =  101
 STRESS PERIOD=  1 TIMESTEP=569 LAYER=  1 ZONE=  2 ACTIVE CELLS= 9990 NUMBER OF EQUATIONS=    9990
 
 SOLVING FOR HEAD 

 NO OUTPUT CONTROL FOR STRESS PERIOD    1   TIME STEP  570
 SOLVING FOR ZETA FOR LAYER     1 ZONE     2

    4451 UPPER PART EQS.      4510 LOWER PART EQS.    BAND WIDTH + 1 =  148
 INSUFFICIENT MEMORY FOR DE4 SOLVER:
 MXBW MUST BE AT LEAST  148
 
 SOLVING FOR HEAD 

 NO OUTPUT CONTROL FOR STRESS PERIOD    1   TIME STEP  571
 SOLVING FOR ZETA FOR LAYER     1 ZONE     2

    4995 UPPER PART EQS.      4997 LOWER PART EQS.    BAND WIDTH + 1 =  101
 STRESS PERIOD=  1 TIMESTEP=571 LAYER=  1 ZONE=  2 ACTIVE CELLS= 9992 NUMBER OF EQUATIONS=    9992
 
 SOLVING FOR HEAD 

 NO OUTPUT CONTROL FOR STRESS PERIOD    1   TIME STEP  572
 SOLVING FOR ZETA FOR LAYER     1 ZONE     2

    4453 UPPER PART EQS.      4512 LOWER PART EQS.    BAND WIDTH + 1 =  147
 INSUFFICIENT MEMORY FOR DE4 SOLVER:
 MXBW MUST BE AT LEAST  147
 
 SOLVING FOR HEAD 

 NO OUTPUT CONTROL FOR STRESS PERIOD    1   TIME STEP  573
 SOLVING FOR ZETA FOR LAYER     1 ZONE     2

    4994 UPPER PART EQS.      4997 LOWER PART EQS.    BAND WIDTH + 1 =  101
 STRESS PERIOD=  1 TIMESTEP=573 LAYER=  1 ZONE=  2 ACTIVE CELLS= 9991 NUMBER OF EQUATIONS=    9991
 
 SOLVING FOR HEAD 

 NO OUTPUT CONTROL FOR STRESS PERIOD    1   TIME STEP  574
 SOLVING FOR ZETA FOR LAYER     1 ZONE     2

    4450 UPPER PART EQS.      4512 LOWER PART EQS.    BAND WIDTH + 1 =  150
 INSUFFICIENT MEMORY FOR DE4 SOLVER:
 MXBW MUST BE AT LEAST  150
 
 SOLVING FOR HEAD 

 NO OUTPUT CONTROL FOR STRESS PERIOD    1   TIME STEP  575
 SOLVING FOR ZETA FOR LAYER     1 ZONE     2

    4994 UPPER PART EQS.      4996 LOWER PART EQS.    BAND WIDTH + 1 =  102
 STRESS PERIOD=  1 TIMESTEP=575 LAYER=  1 ZONE=  2 ACTIVE CELLS= 9990 NUMBER OF EQUATIONS=    9990
 
 SOLVING FOR HEAD 

 NO OUTPUT CONTROL FOR STRESS PERIOD    1   TIME STEP  576
 SOLVING FOR ZETA FOR LAYER     1 ZONE     2

    4452 UPPER PART EQS.      4510 LOWER PART EQS.    BAND WIDTH + 1 =  147
 INSUFFICIENT MEMORY FOR DE4 SOLVER:
 MXBW MUST BE AT LEAST  147
 
 SOLVING FOR HEAD 

 NO OUTPUT CONTROL FOR STRESS PERIOD    1   TIME STEP  577
 SOLVING FOR ZETA FOR LAYER     1 ZONE     2

    4993 UPPER PART EQS.      4997 LOWER PART EQS.    BAND WIDTH + 1 =  102
 STRESS PERIOD=  1 TIMESTEP=577 LAYER=  1 ZONE=  2 ACTIVE CELLS= 9990 NUMBER OF EQUATIONS=    9990
 
 SOLVING FOR HEAD 

 NO OUTPUT CONTROL FOR STRESS PERIOD    1   TIME STEP  578
 SOLVING FOR ZETA FOR LAYER     1 ZONE     2

    4447 UPPER PART EQS.      4512 LOWER PART EQS.    BAND WIDTH + 1 =  151
 INSUFFICIENT MEMORY FOR DE4 SOLVER:
 MXBW MUST BE AT LEAST  151
 
 SOLVING FOR HEAD 

 NO OUTPUT CONTROL FOR STRESS PERIOD    1   TIME STEP  579
 SOLVING FOR ZETA FOR LAYER     1 ZONE     2

    4993 UPPER PART EQS.      4997 LOWER PART EQS.    BAND WIDTH + 1 =  102
 STRESS PERIOD=  1 TIMESTEP=579 LAYER=  1 ZONE=  2 ACTIVE CELLS= 9990 NUMBER OF EQUATIONS=    9990
 
 SOLVING FOR HEAD 

 NO OUTPUT CONTROL FOR STRESS PERIOD    1   TIME STEP  580
 SOLVING FOR ZETA FOR LAYER     1 ZONE     2

    4451 UPPER PART EQS.      4510 LOWER PART EQS.    BAND WIDTH + 1 =  146
 INSUFFICIENT MEMORY FOR DE4 SOLVER:
 MXBW MUST BE AT LEAST  146
 
 SOLVING FOR HEAD 

 NO OUTPUT CONTROL FOR STRESS PERIOD    1   TIME STEP  581
 SOLVING FOR ZETA FOR LAYER     1 ZONE     2

    4990 UPPER PART EQS.      4998 LOWER PART EQS.    BAND WIDTH + 1 =  103
 STRESS PERIOD=  1 TIMESTEP=581 LAYER=  1 ZONE=  2 ACTIVE CELLS= 9988 NUMBER OF EQUATIONS=    9988
 
 SOLVING FOR HEAD 

 NO OUTPUT CONTROL FOR STRESS PERIOD    1   TIME STEP  582
 SOLVING FOR ZETA FOR LAYER     1 ZONE     2

    4446 UPPER PART EQS.      4512 LOWER PART EQS.    BAND WIDTH + 1 =  151
 INSUFFICIENT MEMORY FOR DE4 SOLVER:
 MXBW MUST BE AT LEAST  151
 
 SOLVING FOR HEAD 

 NO OUTPUT CONTROL FOR STRESS PERIOD    1   TIME STEP  583
 SOLVING FOR ZETA FOR LAYER     1 ZONE     2

    4992 UPPER PART EQS.      4998 LOWER PART EQS.    BAND WIDTH + 1 =  103
 STRESS PERIOD=  1 TIMESTEP=583 LAYER=  1 ZONE=  2 ACTIVE CELLS= 9990 NUMBER OF EQUATIONS=    9990
 
 SOLVING FOR HEAD 

 NO OUTPUT CONTROL FOR STRESS PERIOD    1   TIME STEP  584
 SOLVING FOR ZETA FOR LAYER     1 ZONE     2

    4448 UPPER PART EQS.      4509 LOWER PART EQS.    BAND WIDTH + 1 =  147
 INSUFFICIENT MEMORY FOR DE4 SOLVER:
 MXBW MUST BE AT LEAST  147
 
 SOLVING FOR HEAD 

 NO OUTPUT CONTROL FOR STRESS PERIOD    1   TIME STEP  585
 SOLVING FOR ZETA FOR LAYER     1 ZONE     2

    4991 UPPER PART EQS.      4998 LOWER PART EQS.    BAND WIDTH + 1 =  104
 STRESS PERIOD=  1 TIMESTEP=585 LAYER=  1 ZONE=  2 ACTIVE CELLS= 9989 NUMBER OF EQUATIONS=    9989
 
 SOLVING FOR HEAD 

 NO OUTPUT CONTROL FOR STRESS PERIOD    1   TIME STEP  586
 SOLVING FOR ZETA FOR LAYER     1 ZONE     2

    4445 UPPER PART EQS.      4511 LOWER PART EQS.    BAND WIDTH + 1 =  153
 INSUFFICIENT MEMORY FOR DE4 SOLVER:
 MXBW MUST BE AT LEAST  153
 
 SOLVING FOR HEAD 

 NO OUTPUT CONTROL FOR STRESS PERIOD    1   TIME STEP  587
 SOLVING FOR ZETA FOR LAYER     1 ZONE     2

    4990 UPPER PART EQS.      4998 LOWER PART EQS.    BAND WIDTH + 1 =  104
 STRESS PERIOD=  1 TIMESTEP=587 LAYER=  1 ZONE=  2 ACTIVE CELLS= 9988 NUMBER OF EQUATIONS=    9988
 
 SOLVING FOR HEAD 

 NO OUTPUT CONTROL FOR STRESS PERIOD    1   TIME STEP  588
 SOLVING FOR ZETA FOR LAYER     1 ZONE     2

    4451 UPPER PART EQS.      4511 LOWER PART EQS.    BAND WIDTH + 1 =  150
 INSUFFICIENT MEMORY FOR DE4 SOLVER:
 MXBW MUST BE AT LEAST  150
 
 SOLVING FOR HEAD 

 NO OUTPUT CONTROL FOR STRESS PERIOD    1   TIME STEP  589
 SOLVING FOR ZETA FOR LAYER     1 ZONE     2

    4989 UPPER PART EQS.      4997 LOWER PART EQS.    BAND WIDTH + 1 =  105
 STRESS PERIOD=  1 TIMESTEP=589 LAYER=  1 ZONE=  2 ACTIVE CELLS= 9986 NUMBER OF EQUATIONS=    9986
 
 SOLVING FOR HEAD 

 NO OUTPUT CONTROL FOR STRESS PERIOD    1   TIME STEP  590
 SOLVING FOR ZETA FOR LAYER     1 ZONE     2

    4451 UPPER PART EQS.      4513 LOWER PART EQS.    BAND WIDTH + 1 =  149
 INSUFFICIENT MEMORY FOR DE4 SOLVER:
 MXBW MUST BE AT LEAST  149
 
 SOLVING FOR HEAD 

 NO OUTPUT CONTROL FOR STRESS PERIOD    1   TIME STEP  591
 SOLVING FOR ZETA FOR LAYER     1 ZONE     2

    4990 UPPER PART EQS.      4998 LOWER PART EQS.    BAND WIDTH + 1 =  104
 STRESS PERIOD=  1 TIMESTEP=591 LAYER=  1 ZONE=  2 ACTIVE CELLS= 9988 NUMBER OF EQUATIONS=    9988
 
 SOLVING FOR HEAD 

 NO OUTPUT CONTROL FOR STRESS PERIOD    1   TIME STEP  592
 SOLVING FOR ZETA FOR LAYER     1 ZONE     2

    4451 UPPER PART EQS.      4511 LOWER PART EQS.    BAND WIDTH + 1 =  152
 INSUFFICIENT MEMORY FOR DE4 SOLVER:
 MXBW MUST BE AT LEAST  152
 
 SOLVING FOR HEAD 

 NO OUTPUT CONTROL FOR STRESS PERIOD    1   TIME STEP  593
 SOLVING FOR ZETA FOR LAYER     1 ZONE     2

    4989 UPPER PART EQS.      4997 LOWER PART EQS.    BAND WIDTH + 1 =  103
 STRESS PERIOD=  1 TIMESTEP=593 LAYER=  1 ZONE=  2 ACTIVE CELLS= 9986 NUMBER OF EQUATIONS=    9986
 
 SOLVING FOR HEAD 

 NO OUTPUT CONTROL FOR STRESS PERIOD    1   TIME STEP  594
 SOLVING FOR ZETA FOR LAYER     1 ZONE     2

    4446 UPPER PART EQS.      4511 LOWER PART EQS.    BAND WIDTH + 1 =  152
 INSUFFICIENT MEMORY FOR DE4 SOLVER:
 MXBW MUST BE AT LEAST  152
 
 SOLVING FOR HEAD 

 NO OUTPUT CONTROL FOR STRESS PERIOD    1   TIME STEP  595
 SOLVING FOR ZETA FOR LAYER     1 ZONE     2

    4991 UPPER PART EQS.      4998 LOWER PART EQS.    BAND WIDTH + 1 =  104
 STRESS PERIOD=  1 TIMESTEP=595 LAYER=  1 ZONE=  2 ACTIVE CELLS= 9989 NUMBER OF EQUATIONS=    9989
 
 SOLVING FOR HEAD 

 NO OUTPUT CONTROL FOR STRESS PERIOD    1   TIME STEP  596
 SOLVING FOR ZETA FOR LAYER     1 ZONE     2

    4453 UPPER PART EQS.      4513 LOWER PART EQS.    BAND WIDTH + 1 =  149
 INSUFFICIENT MEMORY FOR DE4 SOLVER:
 MXBW MUST BE AT LEAST  149
 
 SOLVING FOR HEAD 

 NO OUTPUT CONTROL FOR STRESS PERIOD    1   TIME STEP  597
 SOLVING FOR ZETA FOR LAYER     1 ZONE     2

    4991 UPPER PART EQS.      4998 LOWER PART EQS.    BAND WIDTH + 1 =  104
 STRESS PERIOD=  1 TIMESTEP=597 LAYER=  1 ZONE=  2 ACTIVE CELLS= 9989 NUMBER OF EQUATIONS=    9989
 
 SOLVING FOR HEAD 

 NO OUTPUT CONTROL FOR STRESS PERIOD    1   TIME STEP  598
 SOLVING FOR ZETA FOR LAYER     1 ZONE     2

    4448 UPPER PART EQS.      4514 LOWER PART EQS.    BAND WIDTH + 1 =  155
 INSUFFICIENT MEMORY FOR DE4 SOLVER:
 MXBW MUST BE AT LEAST  155
 
 SOLVING FOR HEAD 

 NO OUTPUT CONTROL FOR STRESS PERIOD    1   TIME STEP  599
 SOLVING FOR ZETA FOR LAYER     1 ZONE     2

    4989 UPPER PART EQS.      4997 LOWER PART EQS.    BAND WIDTH + 1 =  104
 STRESS PERIOD=  1 TIMESTEP=599 LAYER=  1 ZONE=  2 ACTIVE CELLS= 9986 NUMBER OF EQUATIONS=    9986
 
 SOLVING FOR HEAD 

 OUTPUT CONTROL FOR STRESS PERIOD    1   TIME STEP  600
    PRINT BUDGET
    SAVE HEAD FOR ALL LAYERS
 SOLVING FOR ZETA FOR LAYER     1 ZONE     2

    4454 UPPER PART EQS.      4517 LOWER PART EQS.    BAND WIDTH + 1 =  149
 INSUFFICIENT MEMORY FOR DE4 SOLVER:
 MXBW MUST BE AT LEAST  149
 UBUDSV SAVING "      ZETASRF  1" ON UNIT 55 AT TIME STEP600, STRESS PERIOD    1


                      VOLUMETRIC SWI ZONE BUDGET FOR ENTIRE MODEL
                     AT END OF TIME STEP  600 IN STRESS PERIOD   1
                                      ZONE     1
  -----------------------------------------------------------------------------------

        CUMULATIVE VOLUMES      L**3       RATES FOR THIS TIME STEP      L**3/T
        ------------------                 ------------------------

              IN:                                      IN:
              ---                                      ---
             BOUNDARIES =   255990560.0000            BOUNDARIES =        5858.7690
          CONSTANT HEAD =           0.0000         CONSTANT HEAD =           0.0000
            ZONE CHANGE =     7905955.5000           ZONE CHANGE =           0.0000
       ZONE CHG TIP/TOE =    49486780.0000      ZONE CHG TIP/TOE =          12.0426
            ZONE MIXING =           0.0000           ZONE MIXING =           0.0000

               TOTAL IN =   313383296.0000              TOTAL IN =        5870.8115

             OUT:                                     OUT:
             ----                                     ----
             BOUNDARIES =   130543296.0000            BOUNDARIES =       6.5069E-03
          CONSTANT HEAD =           0.0000         CONSTANT HEAD =           0.0000
            ZONE CHANGE =    81598632.0000           ZONE CHANGE =           0.0000
       ZONE CHG TIP/TOE =     1137073.2500      ZONE CHG TIP/TOE =          24.1649
            ZONE MIXING =           0.0000           ZONE MIXING =           0.0000

              TOTAL OUT =   213278992.0000             TOTAL OUT =          24.1714

               IN - OUT =   100104304.0000              IN - OUT =        5846.6401

    PERCENT DISCREPANCY =          38.01     PERCENT DISCREPANCY =         198.36



                      VOLUMETRIC SWI ZONE BUDGET FOR ENTIRE MODEL
                     AT END OF TIME STEP  600 IN STRESS PERIOD   1
                                      ZONE     2
  -----------------------------------------------------------------------------------

        CUMULATIVE VOLUMES      L**3       RATES FOR THIS TIME STEP      L**3/T
        ------------------                 ------------------------

              IN:                                      IN:
              ---                                      ---
             BOUNDARIES =      930977.8750            BOUNDARIES =           2.9940
          CONSTANT HEAD =           0.0000         CONSTANT HEAD =           0.0000
            ZONE CHANGE =    32354882.0000           ZONE CHANGE =           0.0000
       ZONE CHG TIP/TOE =    65631932.0000      ZONE CHG TIP/TOE =          24.1649
            ZONE MIXING =           0.0000           ZONE MIXING =           0.0000

               TOTAL IN =    98917792.0000              TOTAL IN =          27.1588

             OUT:                                     OUT:
             ----                                     ----
             BOUNDARIES =   126377032.0000            BOUNDARIES =        5861.7563
          CONSTANT HEAD =           0.0000         CONSTANT HEAD =           0.0000
            ZONE CHANGE =    72400816.0000           ZONE CHANGE =           0.0000
       ZONE CHG TIP/TOE =      243025.5156      ZONE CHG TIP/TOE =          12.0426
            ZONE MIXING =           0.0000           ZONE MIXING =           0.0000

              TOTAL OUT =   199020880.0000             TOTAL OUT =        5873.7988

               IN - OUT =  -100103088.0000              IN - OUT =       -5846.6401

    PERCENT DISCREPANCY =         -67.20     PERCENT DISCREPANCY =        -198.16


 HEAD WILL BE SAVED ON UNIT   51 AT END OF TIME STEP  600, STRESS PERIOD    1
1
  VOLUMETRIC BUDGET FOR ENTIRE MODEL AT END OF TIME STEP  600, STRESS PERIOD   1
  ------------------------------------------------------------------------------

     CUMULATIVE VOLUMES      L**3       RATES FOR THIS TIME STEP      L**3/T
     ------------------                 ------------------------

           IN:                                      IN:
           ---                                      ---
             STORAGE =           0.0000               STORAGE =           0.0000
       CONSTANT HEAD =           0.0000         CONSTANT HEAD =           0.0000
          SWIADDTOCH =           0.0000            SWIADDTOCH =           0.0000
     HEAD DEP BOUNDS =           9.2661       HEAD DEP BOUNDS =       2.1070E-04
            RECHARGE =   256922448.0000              RECHARGE =        5861.7627

            TOTAL IN =   256922464.0000              TOTAL IN =        5861.7627

          OUT:                                     OUT:
          ----                                     ----
             STORAGE =           0.0000               STORAGE =           0.0000
       CONSTANT HEAD =           0.0000         CONSTANT HEAD =           0.0000
          SWIADDTOCH =           0.0000            SWIADDTOCH =           0.0000
     HEAD DEP BOUNDS =   256922448.0000       HEAD DEP BOUNDS =        5861.7627
            RECHARGE =           0.0000              RECHARGE =           0.0000

           TOTAL OUT =   256922448.0000             TOTAL OUT =        5861.7627

            IN - OUT =          16.0000              IN - OUT =           0.0000

 PERCENT DISCREPANCY =           0.00     PERCENT DISCREPANCY =           0.00






         TIME SUMMARY AT END OF TIME STEP  600 IN STRESS PERIOD    1
                    SECONDS     MINUTES      HOURS       DAYS        YEARS
                    -----------------------------------------------------------
   TIME STEP LENGTH 6.31152E+06 1.05192E+05  1753.2      73.050     0.20000    
 STRESS PERIOD TIME 3.78693E+09 6.31156E+07 1.05193E+06  43830.      120.00    
         TOTAL TIME 3.78693E+09 6.31156E+07 1.05193E+06  43830.      120.00    
1
 
 SOLVING FOR HEAD 

 NO OUTPUT CONTROL FOR STRESS PERIOD    1   TIME STEP  601
 SOLVING FOR ZETA FOR LAYER     1 ZONE     2

    4991 UPPER PART EQS.      4998 LOWER PART EQS.    BAND WIDTH + 1 =  104
 STRESS PERIOD=  1 TIMESTEP=601 LAYER=  1 ZONE=  2 ACTIVE CELLS= 9989 NUMBER OF EQUATIONS=    9989
 
 SOLVING FOR HEAD 

 NO OUTPUT CONTROL FOR STRESS PERIOD    1   TIME STEP  602
 SOLVING FOR ZETA FOR LAYER     1 ZONE     2

    4451 UPPER PART EQS.      4513 LOWER PART EQS.    BAND WIDTH + 1 =  152
 INSUFFICIENT MEMORY FOR DE4 SOLVER:
 MXBW MUST BE AT LEAST  152
 
 SOLVING FOR HEAD 

 NO OUTPUT CONTROL FOR STRESS PERIOD    1   TIME STEP  603
 SOLVING FOR ZETA FOR LAYER     1 ZONE     2

    4989 UPPER PART EQS.      4998 LOWER PART EQS.    BAND WIDTH + 1 =  104
 STRESS PERIOD=  1 TIMESTEP=603 LAYER=  1 ZONE=  2 ACTIVE CELLS= 9987 NUMBER OF EQUATIONS=    9987
 
 SOLVING FOR HEAD 

 NO OUTPUT CONTROL FOR STRESS PERIOD    1   TIME STEP  604
 SOLVING FOR ZETA FOR LAYER     1 ZONE     2

    4452 UPPER PART EQS.      4515 LOWER PART EQS.    BAND WIDTH + 1 =  151
 INSUFFICIENT MEMORY FOR DE4 SOLVER:
 MXBW MUST BE AT LEAST  151
 
 SOLVING FOR HEAD 

 NO OUTPUT CONTROL FOR STRESS PERIOD    1   TIME STEP  605
 SOLVING FOR ZETA FOR LAYER     1 ZONE     2

    4991 UPPER PART EQS.      4998 LOWER PART EQS.    BAND WIDTH + 1 =  104
 STRESS PERIOD=  1 TIMESTEP=605 LAYER=  1 ZONE=  2 ACTIVE CELLS= 9989 NUMBER OF EQUATIONS=    9989
 
 SOLVING FOR HEAD 

 NO OUTPUT CONTROL FOR STRESS PERIOD    1   TIME STEP  606
 SOLVING FOR ZETA FOR LAYER     1 ZONE     2

    4447 UPPER PART EQS.      4516 LOWER PART EQS.    BAND WIDTH + 1 =  158
 INSUFFICIENT MEMORY FOR DE4 SOLVER:
 MXBW MUST BE AT LEAST  158
 
 SOLVING FOR HEAD 

 NO OUTPUT CONTROL FOR STRESS PERIOD    1   TIME STEP  607
 SOLVING FOR ZETA FOR LAYER     1 ZONE     2

    4991 UPPER PART EQS.      4997 LOWER PART EQS.    BAND WIDTH + 1 =  104
 STRESS PERIOD=  1 TIMESTEP=607 LAYER=  1 ZONE=  2 ACTIVE CELLS= 9988 NUMBER OF EQUATIONS=    9988
 
 SOLVING FOR HEAD 

 NO OUTPUT CONTROL FOR STRESS PERIOD    1   TIME STEP  608
 SOLVING FOR ZETA FOR LAYER     1 ZONE     2

    4454 UPPER PART EQS.      4516 LOWER PART EQS.    BAND WIDTH + 1 =  150
 INSUFFICIENT MEMORY FOR DE4 SOLVER:
 MXBW MUST BE AT LEAST  150
 
 SOLVING FOR HEAD 

 NO OUTPUT CONTROL FOR STRESS PERIOD    1   TIME STEP  609
 SOLVING FOR ZETA FOR LAYER     1 ZONE     2

    4990 UPPER PART EQS.      4998 LOWER PART EQS.    BAND WIDTH + 1 =  104
 STRESS PERIOD=  1 TIMESTEP=609 LAYER=  1 ZONE=  2 ACTIVE CELLS= 9988 NUMBER OF EQUATIONS=    9988
 
 SOLVING FOR HEAD 

 NO OUTPUT CONTROL FOR STRESS PERIOD    1   TIME STEP  610
 SOLVING FOR ZETA FOR LAYER     1 ZONE     2

    4446 UPPER PART EQS.      4516 LOWER PART EQS.    BAND WIDTH + 1 =  158
 INSUFFICIENT MEMORY FOR DE4 SOLVER:
 MXBW MUST BE AT LEAST  158
 
 SOLVING FOR HEAD 

 NO OUTPUT CONTROL FOR STRESS PERIOD    1   TIME STEP  611
 SOLVING FOR ZETA FOR LAYER     1 ZONE     2

    4991 UPPER PART EQS.      4998 LOWER PART EQS.    BAND WIDTH + 1 =  104
 STRESS PERIOD=  1 TIMESTEP=611 LAYER=  1 ZONE=  2 ACTIVE CELLS= 9989 NUMBER OF EQUATIONS=    9989
 
 SOLVING FOR HEAD 

 NO OUTPUT CONTROL FOR STRESS PERIOD    1   TIME STEP  612
 SOLVING FOR ZETA FOR LAYER     1 ZONE     2

    4453 UPPER PART EQS.      4515 LOWER PART EQS.    BAND WIDTH + 1 =  149
 INSUFFICIENT MEMORY FOR DE4 SOLVER:
 MXBW MUST BE AT LEAST  149
 
 SOLVING FOR HEAD 

 NO OUTPUT CONTROL FOR STRESS PERIOD    1   TIME STEP  613
 SOLVING FOR ZETA FOR LAYER     1 ZONE     2

    4991 UPPER PART EQS.      4998 LOWER PART EQS.    BAND WIDTH + 1 =  104
 STRESS PERIOD=  1 TIMESTEP=613 LAYER=  1 ZONE=  2 ACTIVE CELLS= 9989 NUMBER OF EQUATIONS=    9989
 
 SOLVING FOR HEAD 

 NO OUTPUT CONTROL FOR STRESS PERIOD    1   TIME STEP  614
 SOLVING FOR ZETA FOR LAYER     1 ZONE     2

    4450 UPPER PART EQS.      4520 LOWER PART EQS.    BAND WIDTH + 1 =  157
 INSUFFICIENT MEMORY FOR DE4 SOLVER:
 MXBW MUST BE AT LEAST  157
 
 SOLVING FOR HEAD 

 NO OUTPUT CONTROL FOR STRESS PERIOD    1   TIME STEP  615
 SOLVING FOR ZETA FOR LAYER     1 ZONE     2

    4989 UPPER PART EQS.      4997 LOWER PART EQS.    BAND WIDTH + 1 =  105
 STRESS PERIOD=  1 TIMESTEP=615 LAYER=  1 ZONE=  2 ACTIVE CELLS= 9986 NUMBER OF EQUATIONS=    9986
 
 SOLVING FOR HEAD 

 NO OUTPUT CONTROL FOR STRESS PERIOD    1   TIME STEP  616
 SOLVING FOR ZETA FOR LAYER     1 ZONE     2

    4448 UPPER PART EQS.      4513 LOWER PART EQS.    BAND WIDTH + 1 =  153
 INSUFFICIENT MEMORY FOR DE4 SOLVER:
 MXBW MUST BE AT LEAST  153
 
 SOLVING FOR HEAD 

 NO OUTPUT CONTROL FOR STRESS PERIOD    1   TIME STEP  617
 SOLVING FOR ZETA FOR LAYER     1 ZONE     2

    4990 UPPER PART EQS.      4998 LOWER PART EQS.    BAND WIDTH + 1 =  104
 STRESS PERIOD=  1 TIMESTEP=617 LAYER=  1 ZONE=  2 ACTIVE CELLS= 9988 NUMBER OF EQUATIONS=    9988
 
 SOLVING FOR HEAD 

 NO OUTPUT CONTROL FOR STRESS PERIOD    1   TIME STEP  618
 SOLVING FOR ZETA FOR LAYER     1 ZONE     2

    4448 UPPER PART EQS.      4515 LOWER PART EQS.    BAND WIDTH + 1 =  155
 INSUFFICIENT MEMORY FOR DE4 SOLVER:
 MXBW MUST BE AT LEAST  155
 
 SOLVING FOR HEAD 

 NO OUTPUT CONTROL FOR STRESS PERIOD    1   TIME STEP  619
 SOLVING FOR ZETA FOR LAYER     1 ZONE     2

    4990 UPPER PART EQS.      4998 LOWER PART EQS.    BAND WIDTH + 1 =  104
 STRESS PERIOD=  1 TIMESTEP=619 LAYER=  1 ZONE=  2 ACTIVE CELLS= 9988 NUMBER OF EQUATIONS=    9988
 
 SOLVING FOR HEAD 

 NO OUTPUT CONTROL FOR STRESS PERIOD    1   TIME STEP  620
 SOLVING FOR ZETA FOR LAYER     1 ZONE     2

    4450 UPPER PART EQS.      4510 LOWER PART EQS.    BAND WIDTH + 1 =  149
 INSUFFICIENT MEMORY FOR DE4 SOLVER:
 MXBW MUST BE AT LEAST  149
 
 SOLVING FOR HEAD 

 NO OUTPUT CONTROL FOR STRESS PERIOD    1   TIME STEP  621
 SOLVING FOR ZETA FOR LAYER     1 ZONE     2

    4990 UPPER PART EQS.      4997 LOWER PART EQS.    BAND WIDTH + 1 =  104
 STRESS PERIOD=  1 TIMESTEP=621 LAYER=  1 ZONE=  2 ACTIVE CELLS= 9987 NUMBER OF EQUATIONS=    9987
 
 SOLVING FOR HEAD 

 NO OUTPUT CONTROL FOR STRESS PERIOD    1   TIME STEP  622
 SOLVING FOR ZETA FOR LAYER     1 ZONE     2

    4446 UPPER PART EQS.      4516 LOWER PART EQS.    BAND WIDTH + 1 =  156
 INSUFFICIENT MEMORY FOR DE4 SOLVER:
 MXBW MUST BE AT LEAST  156
 
 SOLVING FOR HEAD 

 NO OUTPUT CONTROL FOR STRESS PERIOD    1   TIME STEP  623
 SOLVING FOR ZETA FOR LAYER     1 ZONE     2

    4991 UPPER PART EQS.      4998 LOWER PART EQS.    BAND WIDTH + 1 =  104
 STRESS PERIOD=  1 TIMESTEP=623 LAYER=  1 ZONE=  2 ACTIVE CELLS= 9989 NUMBER OF EQUATIONS=    9989
 
 SOLVING FOR HEAD 

 NO OUTPUT CONTROL FOR STRESS PERIOD    1   TIME STEP  624
 SOLVING FOR ZETA FOR LAYER     1 ZONE     2

    4449 UPPER PART EQS.      4513 LOWER PART EQS.    BAND WIDTH + 1 =  152
 INSUFFICIENT MEMORY FOR DE4 SOLVER:
 MXBW MUST BE AT LEAST  152
 
 SOLVING FOR HEAD 

 NO OUTPUT CONTROL FOR STRESS PERIOD    1   TIME STEP  625
 SOLVING FOR ZETA FOR LAYER     1 ZONE     2

    4990 UPPER PART EQS.      4997 LOWER PART EQS.    BAND WIDTH + 1 =  103
 STRESS PERIOD=  1 TIMESTEP=625 LAYER=  1 ZONE=  2 ACTIVE CELLS= 9987 NUMBER OF EQUATIONS=    9987
 
 SOLVING FOR HEAD 

 NO OUTPUT CONTROL FOR STRESS PERIOD    1   TIME STEP  626
 SOLVING FOR ZETA FOR LAYER     1 ZONE     2

    4447 UPPER PART EQS.      4516 LOWER PART EQS.    BAND WIDTH + 1 =  156
 INSUFFICIENT MEMORY FOR DE4 SOLVER:
 MXBW MUST BE AT LEAST  156
 
 SOLVING FOR HEAD 

 NO OUTPUT CONTROL FOR STRESS PERIOD    1   TIME STEP  627
 SOLVING FOR ZETA FOR LAYER     1 ZONE     2

    4991 UPPER PART EQS.      4997 LOWER PART EQS.    BAND WIDTH + 1 =  104
 STRESS PERIOD=  1 TIMESTEP=627 LAYER=  1 ZONE=  2 ACTIVE CELLS= 9988 NUMBER OF EQUATIONS=    9988
 
 SOLVING FOR HEAD 

 NO OUTPUT CONTROL FOR STRESS PERIOD    1   TIME STEP  628
 SOLVING FOR ZETA FOR LAYER     1 ZONE     2

    4448 UPPER PART EQS.      4520 LOWER PART EQS.    BAND WIDTH + 1 =  155
 INSUFFICIENT MEMORY FOR DE4 SOLVER:
 MXBW MUST BE AT LEAST  155
 
 SOLVING FOR HEAD 

 NO OUTPUT CONTROL FOR STRESS PERIOD    1   TIME STEP  629
 SOLVING FOR ZETA FOR LAYER     1 ZONE     2

    4990 UPPER PART EQS.      4997 LOWER PART EQS.    BAND WIDTH + 1 =  104
 STRESS PERIOD=  1 TIMESTEP=629 LAYER=  1 ZONE=  2 ACTIVE CELLS= 9987 NUMBER OF EQUATIONS=    9987
 
 SOLVING FOR HEAD 

 NO OUTPUT CONTROL FOR STRESS PERIOD    1   TIME STEP  630
 SOLVING FOR ZETA FOR LAYER     1 ZONE     2

    4450 UPPER PART EQS.      4513 LOWER PART EQS.    BAND WIDTH + 1 =  152
 INSUFFICIENT MEMORY FOR DE4 SOLVER:
 MXBW MUST BE AT LEAST  152
 
 SOLVING FOR HEAD 

 NO OUTPUT CONTROL FOR STRESS PERIOD    1   TIME STEP  631
 SOLVING FOR ZETA FOR LAYER     1 ZONE     2

    4989 UPPER PART EQS.      4997 LOWER PART EQS.    BAND WIDTH + 1 =  104
 STRESS PERIOD=  1 TIMESTEP=631 LAYER=  1 ZONE=  2 ACTIVE CELLS= 9986 NUMBER OF EQUATIONS=    9986
 
 SOLVING FOR HEAD 

 NO OUTPUT CONTROL FOR STRESS PERIOD    1   TIME STEP  632
 SOLVING FOR ZETA FOR LAYER     1 ZONE     2

    4449 UPPER PART EQS.      4519 LOWER PART EQS.    BAND WIDTH + 1 =  154
 INSUFFICIENT MEMORY FOR DE4 SOLVER:
 MXBW MUST BE AT LEAST  154
 
 SOLVING FOR HEAD 

 NO OUTPUT CONTROL FOR STRESS PERIOD    1   TIME STEP  633
 SOLVING FOR ZETA FOR LAYER     1 ZONE     2

    4990 UPPER PART EQS.      4997 LOWER PART EQS.    BAND WIDTH + 1 =  104
 STRESS PERIOD=  1 TIMESTEP=633 LAYER=  1 ZONE=  2 ACTIVE CELLS= 9987 NUMBER OF EQUATIONS=    9987
 
 SOLVING FOR HEAD 

 NO OUTPUT CONTROL FOR STRESS PERIOD    1   TIME STEP  634
 SOLVING FOR ZETA FOR LAYER     1 ZONE     2

    4452 UPPER PART EQS.      4519 LOWER PART EQS.    BAND WIDTH + 1 =  152
 INSUFFICIENT MEMORY FOR DE4 SOLVER:
 MXBW MUST BE AT LEAST  152
 
 SOLVING FOR HEAD 

 NO OUTPUT CONTROL FOR STRESS PERIOD    1   TIME STEP  635
 SOLVING FOR ZETA FOR LAYER     1 ZONE     2

    4987 UPPER PART EQS.      4998 LOWER PART EQS.    BAND WIDTH + 1 =  106
 INSUFFICIENT MEMORY FOR DE4 SOLVER:
 MXBW MUST BE AT LEAST  106
 
 SOLVING FOR HEAD 

 NO OUTPUT CONTROL FOR STRESS PERIOD    1   TIME STEP  636
 SOLVING FOR ZETA FOR LAYER     1 ZONE     2

    4990 UPPER PART EQS.      4998 LOWER PART EQS.    BAND WIDTH + 1 =  105
 STRESS PERIOD=  1 TIMESTEP=636 LAYER=  1 ZONE=  2 ACTIVE CELLS= 9988 NUMBER OF EQUATIONS=    9988
 
 SOLVING FOR HEAD 

 NO OUTPUT CONTROL FOR STRESS PERIOD    1   TIME STEP  637
 SOLVING FOR ZETA FOR LAYER     1 ZONE     2

    4453 UPPER PART EQS.      4515 LOWER PART EQS.    BAND WIDTH + 1 =  146
 INSUFFICIENT MEMORY FOR DE4 SOLVER:
 MXBW MUST BE AT LEAST  146
 
 SOLVING FOR HEAD 

 NO OUTPUT CONTROL FOR STRESS PERIOD    1   TIME STEP  638
 SOLVING FOR ZETA FOR LAYER     1 ZONE     2

    4989 UPPER PART EQS.      4996 LOWER PART EQS.    BAND WIDTH + 1 =  103
 STRESS PERIOD=  1 TIMESTEP=638 LAYER=  1 ZONE=  2 ACTIVE CELLS= 9985 NUMBER OF EQUATIONS=    9985
 
 SOLVING FOR HEAD 

 NO OUTPUT CONTROL FOR STRESS PERIOD    1   TIME STEP  639
 SOLVING FOR ZETA FOR LAYER     1 ZONE     2

    4451 UPPER PART EQS.      4514 LOWER PART EQS.    BAND WIDTH + 1 =  150
 INSUFFICIENT MEMORY FOR DE4 SOLVER:
 MXBW MUST BE AT LEAST  150
 
 SOLVING FOR HEAD 

 NO OUTPUT CONTROL FOR STRESS PERIOD    1   TIME STEP  640
 SOLVING FOR ZETA FOR LAYER     1 ZONE     2

    4987 UPPER PART EQS.      4998 LOWER PART EQS.    BAND WIDTH + 1 =  105
 STRESS PERIOD=  1 TIMESTEP=640 LAYER=  1 ZONE=  2 ACTIVE CELLS= 9985 NUMBER OF EQUATIONS=    9985
 
 SOLVING FOR HEAD 

 NO OUTPUT CONTROL FOR STRESS PERIOD    1   TIME STEP  641
 SOLVING FOR ZETA FOR LAYER     1 ZONE     2

    4455 UPPER PART EQS.      4511 LOWER PART EQS.    BAND WIDTH + 1 =  142
 INSUFFICIENT MEMORY FOR DE4 SOLVER:
 MXBW MUST BE AT LEAST  142
 
 SOLVING FOR HEAD 

 NO OUTPUT CONTROL FOR STRESS PERIOD    1   TIME STEP  642
 SOLVING FOR ZETA FOR LAYER     1 ZONE     2

    4989 UPPER PART EQS.      4997 LOWER PART EQS.    BAND WIDTH + 1 =  104
 STRESS PERIOD=  1 TIMESTEP=642 LAYER=  1 ZONE=  2 ACTIVE CELLS= 9986 NUMBER OF EQUATIONS=    9986
 
 SOLVING FOR HEAD 

 NO OUTPUT CONTROL FOR STRESS PERIOD    1   TIME STEP  643
 SOLVING FOR ZETA FOR LAYER     1 ZONE     2

    4447 UPPER PART EQS.      4508 LOWER PART EQS.    BAND WIDTH + 1 =  152
 INSUFFICIENT MEMORY FOR DE4 SOLVER:
 MXBW MUST BE AT LEAST  152
 
 SOLVING FOR HEAD 

 NO OUTPUT CONTROL FOR STRESS PERIOD    1   TIME STEP  644
 SOLVING FOR ZETA FOR LAYER     1 ZONE     2

    4990 UPPER PART EQS.      4998 LOWER PART EQS.    BAND WIDTH + 1 =  104
 STRESS PERIOD=  1 TIMESTEP=644 LAYER=  1 ZONE=  2 ACTIVE CELLS= 9988 NUMBER OF EQUATIONS=    9988
 
 SOLVING FOR HEAD 

 NO OUTPUT CONTROL FOR STRESS PERIOD    1   TIME STEP  645
 SOLVING FOR ZETA FOR LAYER     1 ZONE     2

    4449 UPPER PART EQS.      4507 LOWER PART EQS.    BAND WIDTH + 1 =  146
 INSUFFICIENT MEMORY FOR DE4 SOLVER:
 MXBW MUST BE AT LEAST  146
 
 SOLVING FOR HEAD 

 NO OUTPUT CONTROL FOR STRESS PERIOD    1   TIME STEP  646
 SOLVING FOR ZETA FOR LAYER     1 ZONE     2

    4990 UPPER PART EQS.      4995 LOWER PART EQS.    BAND WIDTH + 1 =  103
 STRESS PERIOD=  1 TIMESTEP=646 LAYER=  1 ZONE=  2 ACTIVE CELLS= 9985 NUMBER OF EQUATIONS=    9985
 
 SOLVING FOR HEAD 

 NO OUTPUT CONTROL FOR STRESS PERIOD    1   TIME STEP  647
 SOLVING FOR ZETA FOR LAYER     1 ZONE     2

    4447 UPPER PART EQS.      4503 LOWER PART EQS.    BAND WIDTH + 1 =  148
 INSUFFICIENT MEMORY FOR DE4 SOLVER:
 MXBW MUST BE AT LEAST  148
 
 SOLVING FOR HEAD 

 NO OUTPUT CONTROL FOR STRESS PERIOD    1   TIME STEP  648
 SOLVING FOR ZETA FOR LAYER     1 ZONE     2

    4989 UPPER PART EQS.      4998 LOWER PART EQS.    BAND WIDTH + 1 =  104
 STRESS PERIOD=  1 TIMESTEP=648 LAYER=  1 ZONE=  2 ACTIVE CELLS= 9987 NUMBER OF EQUATIONS=    9987
 
 SOLVING FOR HEAD 

 NO OUTPUT CONTROL FOR STRESS PERIOD    1   TIME STEP  649
 SOLVING FOR ZETA FOR LAYER     1 ZONE     2

    4448 UPPER PART EQS.      4501 LOWER PART EQS.    BAND WIDTH + 1 =  144
 INSUFFICIENT MEMORY FOR DE4 SOLVER:
 MXBW MUST BE AT LEAST  144
 
 SOLVING FOR HEAD 

 NO OUTPUT CONTROL FOR STRESS PERIOD    1   TIME STEP  650
 SOLVING FOR ZETA FOR LAYER     1 ZONE     2

    4988 UPPER PART EQS.      4996 LOWER PART EQS.    BAND WIDTH + 1 =  104
 STRESS PERIOD=  1 TIMESTEP=650 LAYER=  1 ZONE=  2 ACTIVE CELLS= 9984 NUMBER OF EQUATIONS=    9984
 
 SOLVING FOR HEAD 

 NO OUTPUT CONTROL FOR STRESS PERIOD    1   TIME STEP  651
 SOLVING FOR ZETA FOR LAYER     1 ZONE     2

    4445 UPPER PART EQS.      4503 LOWER PART EQS.    BAND WIDTH + 1 =  152
 INSUFFICIENT MEMORY FOR DE4 SOLVER:
 MXBW MUST BE AT LEAST  152
 
 SOLVING FOR HEAD 

 NO OUTPUT CONTROL FOR STRESS PERIOD    1   TIME STEP  652
 SOLVING FOR ZETA FOR LAYER     1 ZONE     2

    4989 UPPER PART EQS.      4998 LOWER PART EQS.    BAND WIDTH + 1 =  104
 STRESS PERIOD=  1 TIMESTEP=652 LAYER=  1 ZONE=  2 ACTIVE CELLS= 9987 NUMBER OF EQUATIONS=    9987
 
 SOLVING FOR HEAD 

 NO OUTPUT CONTROL FOR STRESS PERIOD    1   TIME STEP  653
 SOLVING FOR ZETA FOR LAYER     1 ZONE     2

    4447 UPPER PART EQS.      4500 LOWER PART EQS.    BAND WIDTH + 1 =  145
 INSUFFICIENT MEMORY FOR DE4 SOLVER:
 MXBW MUST BE AT LEAST  145
 
 SOLVING FOR HEAD 

 NO OUTPUT CONTROL FOR STRESS PERIOD    1   TIME STEP  654
 SOLVING FOR ZETA FOR LAYER     1 ZONE     2

    4989 UPPER PART EQS.      4996 LOWER PART EQS.    BAND WIDTH + 1 =  104
 STRESS PERIOD=  1 TIMESTEP=654 LAYER=  1 ZONE=  2 ACTIVE CELLS= 9985 NUMBER OF EQUATIONS=    9985
 
 SOLVING FOR HEAD 

 NO OUTPUT CONTROL FOR STRESS PERIOD    1   TIME STEP  655
 SOLVING FOR ZETA FOR LAYER     1 ZONE     2

    4446 UPPER PART EQS.      4502 LOWER PART EQS.    BAND WIDTH + 1 =  150
 INSUFFICIENT MEMORY FOR DE4 SOLVER:
 MXBW MUST BE AT LEAST  150
 
 SOLVING FOR HEAD 

 NO OUTPUT CONTROL FOR STRESS PERIOD    1   TIME STEP  656
 SOLVING FOR ZETA FOR LAYER     1 ZONE     2

    4989 UPPER PART EQS.      4998 LOWER PART EQS.    BAND WIDTH + 1 =  104
 STRESS PERIOD=  1 TIMESTEP=656 LAYER=  1 ZONE=  2 ACTIVE CELLS= 9987 NUMBER OF EQUATIONS=    9987
 
 SOLVING FOR HEAD 

 NO OUTPUT CONTROL FOR STRESS PERIOD    1   TIME STEP  657
 SOLVING FOR ZETA FOR LAYER     1 ZONE     2

    4443 UPPER PART EQS.      4502 LOWER PART EQS.    BAND WIDTH + 1 =  151
 INSUFFICIENT MEMORY FOR DE4 SOLVER:
 MXBW MUST BE AT LEAST  151
 
 SOLVING FOR HEAD 

 NO OUTPUT CONTROL FOR STRESS PERIOD    1   TIME STEP  658
 SOLVING FOR ZETA FOR LAYER     1 ZONE     2

    4988 UPPER PART EQS.      4995 LOWER PART EQS.    BAND WIDTH + 1 =  104
 STRESS PERIOD=  1 TIMESTEP=658 LAYER=  1 ZONE=  2 ACTIVE CELLS= 9983 NUMBER OF EQUATIONS=    9983
 
 SOLVING FOR HEAD 

 NO OUTPUT CONTROL FOR STRESS PERIOD    1   TIME STEP  659
 SOLVING FOR ZETA FOR LAYER     1 ZONE     2

    4443 UPPER PART EQS.      4504 LOWER PART EQS.    BAND WIDTH + 1 =  152
 INSUFFICIENT MEMORY FOR DE4 SOLVER:
 MXBW MUST BE AT LEAST  152
 
 SOLVING FOR HEAD 

 NO OUTPUT CONTROL FOR STRESS PERIOD    1   TIME STEP  660
 SOLVING FOR ZETA FOR LAYER     1 ZONE     2

    4989 UPPER PART EQS.      4998 LOWER PART EQS.    BAND WIDTH + 1 =  104
 STRESS PERIOD=  1 TIMESTEP=660 LAYER=  1 ZONE=  2 ACTIVE CELLS= 9987 NUMBER OF EQUATIONS=    9987
 
 SOLVING FOR HEAD 

 NO OUTPUT CONTROL FOR STRESS PERIOD    1   TIME STEP  661
 SOLVING FOR ZETA FOR LAYER     1 ZONE     2

    4442 UPPER PART EQS.      4505 LOWER PART EQS.    BAND WIDTH + 1 =  151
 INSUFFICIENT MEMORY FOR DE4 SOLVER:
 MXBW MUST BE AT LEAST  151
 
 SOLVING FOR HEAD 

 NO OUTPUT CONTROL FOR STRESS PERIOD    1   TIME STEP  662
 SOLVING FOR ZETA FOR LAYER     1 ZONE     2

    4987 UPPER PART EQS.      4995 LOWER PART EQS.    BAND WIDTH + 1 =  104
 STRESS PERIOD=  1 TIMESTEP=662 LAYER=  1 ZONE=  2 ACTIVE CELLS= 9982 NUMBER OF EQUATIONS=    9982
 
 SOLVING FOR HEAD 

 NO OUTPUT CONTROL FOR STRESS PERIOD    1   TIME STEP  663
 SOLVING FOR ZETA FOR LAYER     1 ZONE     2

    4441 UPPER PART EQS.      4503 LOWER PART EQS.    BAND WIDTH + 1 =  151
 INSUFFICIENT MEMORY FOR DE4 SOLVER:
 MXBW MUST BE AT LEAST  151
 
 SOLVING FOR HEAD 

 NO OUTPUT CONTROL FOR STRESS PERIOD    1   TIME STEP  664
 SOLVING FOR ZETA FOR LAYER     1 ZONE     2

    4988 UPPER PART EQS.      4996 LOWER PART EQS.    BAND WIDTH + 1 =  102
 STRESS PERIOD=  1 TIMESTEP=664 LAYER=  1 ZONE=  2 ACTIVE CELLS= 9984 NUMBER OF EQUATIONS=    9984
 
 SOLVING FOR HEAD 

 NO OUTPUT CONTROL FOR STRESS PERIOD    1   TIME STEP  665
 SOLVING FOR ZETA FOR LAYER     1 ZONE     2

    4446 UPPER PART EQS.      4501 LOWER PART EQS.    BAND WIDTH + 1 =  147
 INSUFFICIENT MEMORY FOR DE4 SOLVER:
 MXBW MUST BE AT LEAST  147
 
 SOLVING FOR HEAD 

 NO OUTPUT CONTROL FOR STRESS PERIOD    1   TIME STEP  666
 SOLVING FOR ZETA FOR LAYER     1 ZONE     2

    4988 UPPER PART EQS.      4995 LOWER PART EQS.    BAND WIDTH + 1 =  104
 STRESS PERIOD=  1 TIMESTEP=666 LAYER=  1 ZONE=  2 ACTIVE CELLS= 9983 NUMBER OF EQUATIONS=    9983
 
 SOLVING FOR HEAD 

 NO OUTPUT CONTROL FOR STRESS PERIOD    1   TIME STEP  667
 SOLVING FOR ZETA FOR LAYER     1 ZONE     2

    4442 UPPER PART EQS.      4501 LOWER PART EQS.    BAND WIDTH + 1 =  149
 INSUFFICIENT MEMORY FOR DE4 SOLVER:
 MXBW MUST BE AT LEAST  149
 
 SOLVING FOR HEAD 

 NO OUTPUT CONTROL FOR STRESS PERIOD    1   TIME STEP  668
 SOLVING FOR ZETA FOR LAYER     1 ZONE     2

    4989 UPPER PART EQS.      4998 LOWER PART EQS.    BAND WIDTH + 1 =  104
 STRESS PERIOD=  1 TIMESTEP=668 LAYER=  1 ZONE=  2 ACTIVE CELLS= 9987 NUMBER OF EQUATIONS=    9987
 
 SOLVING FOR HEAD 

 NO OUTPUT CONTROL FOR STRESS PERIOD    1   TIME STEP  669
 SOLVING FOR ZETA FOR LAYER     1 ZONE     2

    4442 UPPER PART EQS.      4504 LOWER PART EQS.    BAND WIDTH + 1 =  148
 INSUFFICIENT MEMORY FOR DE4 SOLVER:
 MXBW MUST BE AT LEAST  148
 
 SOLVING FOR HEAD 

 NO OUTPUT CONTROL FOR STRESS PERIOD    1   TIME STEP  670
 SOLVING FOR ZETA FOR LAYER     1 ZONE     2

    4988 UPPER PART EQS.      4994 LOWER PART EQS.    BAND WIDTH + 1 =  104
 STRESS PERIOD=  1 TIMESTEP=670 LAYER=  1 ZONE=  2 ACTIVE CELLS= 9982 NUMBER OF EQUATIONS=    9982
 
 SOLVING FOR HEAD 

 NO OUTPUT CONTROL FOR STRESS PERIOD    1   TIME STEP  671
 SOLVING FOR ZETA FOR LAYER     1 ZONE     2

    4440 UPPER PART EQS.      4505 LOWER PART EQS.    BAND WIDTH + 1 =  151
 INSUFFICIENT MEMORY FOR DE4 SOLVER:
 MXBW MUST BE AT LEAST  151
 
 SOLVING FOR HEAD 

 NO OUTPUT CONTROL FOR STRESS PERIOD    1   TIME STEP  672
 SOLVING FOR ZETA FOR LAYER     1 ZONE     2

    4989 UPPER PART EQS.      4998 LOWER PART EQS.    BAND WIDTH + 1 =  104
 STRESS PERIOD=  1 TIMESTEP=672 LAYER=  1 ZONE=  2 ACTIVE CELLS= 9987 NUMBER OF EQUATIONS=    9987
 
 SOLVING FOR HEAD 

 NO OUTPUT CONTROL FOR STRESS PERIOD    1   TIME STEP  673
 SOLVING FOR ZETA FOR LAYER     1 ZONE     2

    4444 UPPER PART EQS.      4505 LOWER PART EQS.    BAND WIDTH + 1 =  149
 INSUFFICIENT MEMORY FOR DE4 SOLVER:
 MXBW MUST BE AT LEAST  149
 
 SOLVING FOR HEAD 

 NO OUTPUT CONTROL FOR STRESS PERIOD    1   TIME STEP  674
 SOLVING FOR ZETA FOR LAYER     1 ZONE     2

    4989 UPPER PART EQS.      4995 LOWER PART EQS.    BAND WIDTH + 1 =  103
 STRESS PERIOD=  1 TIMESTEP=674 LAYER=  1 ZONE=  2 ACTIVE CELLS= 9984 NUMBER OF EQUATIONS=    9984
 
 SOLVING FOR HEAD 

 NO OUTPUT CONTROL FOR STRESS PERIOD    1   TIME STEP  675
 SOLVING FOR ZETA FOR LAYER     1 ZONE     2

    4440 UPPER PART EQS.      4509 LOWER PART EQS.    BAND WIDTH + 1 =  158
 INSUFFICIENT MEMORY FOR DE4 SOLVER:
 MXBW MUST BE AT LEAST  158
 
 SOLVING FOR HEAD 

 NO OUTPUT CONTROL FOR STRESS PERIOD    1   TIME STEP  676
 SOLVING FOR ZETA FOR LAYER     1 ZONE     2

    4988 UPPER PART EQS.      4998 LOWER PART EQS.    BAND WIDTH + 1 =  104
 STRESS PERIOD=  1 TIMESTEP=676 LAYER=  1 ZONE=  2 ACTIVE CELLS= 9986 NUMBER OF EQUATIONS=    9986
 
 SOLVING FOR HEAD 

 NO OUTPUT CONTROL FOR STRESS PERIOD    1   TIME STEP  677
 SOLVING FOR ZETA FOR LAYER     1 ZONE     2

    4448 UPPER PART EQS.      4503 LOWER PART EQS.    BAND WIDTH + 1 =  145
 INSUFFICIENT MEMORY FOR DE4 SOLVER:
 MXBW MUST BE AT LEAST  145
 
 SOLVING FOR HEAD 

 NO OUTPUT CONTROL FOR STRESS PERIOD    1   TIME STEP  678
 SOLVING FOR ZETA FOR LAYER     1 ZONE     2

    4989 UPPER PART EQS.      4996 LOWER PART EQS.    BAND WIDTH + 1 =  104
 STRESS PERIOD=  1 TIMESTEP=678 LAYER=  1 ZONE=  2 ACTIVE CELLS= 9985 NUMBER OF EQUATIONS=    9985
 
 SOLVING FOR HEAD 

 NO OUTPUT CONTROL FOR STRESS PERIOD    1   TIME STEP  679
 SOLVING FOR ZETA FOR LAYER     1 ZONE     2

    4441 UPPER PART EQS.      4505 LOWER PART EQS.    BAND WIDTH + 1 =  153
 INSUFFICIENT MEMORY FOR DE4 SOLVER:
 MXBW MUST BE AT LEAST  153
 
 SOLVING FOR HEAD 

 NO OUTPUT CONTROL FOR STRESS PERIOD    1   TIME STEP  680
 SOLVING FOR ZETA FOR LAYER     1 ZONE     2

    4988 UPPER PART EQS.      4998 LOWER PART EQS.    BAND WIDTH + 1 =  103
 STRESS PERIOD=  1 TIMESTEP=680 LAYER=  1 ZONE=  2 ACTIVE CELLS= 9986 NUMBER OF EQUATIONS=    9986
 
 SOLVING FOR HEAD 

 NO OUTPUT CONTROL FOR STRESS PERIOD    1   TIME STEP  681
 SOLVING FOR ZETA FOR LAYER     1 ZONE     2

    4446 UPPER PART EQS.      4504 LOWER PART EQS.    BAND WIDTH + 1 =  147
 INSUFFICIENT MEMORY FOR DE4 SOLVER:
 MXBW MUST BE AT LEAST  147
 
 SOLVING FOR HEAD 

 NO OUTPUT CONTROL FOR STRESS PERIOD    1   TIME STEP  682
 SOLVING FOR ZETA FOR LAYER     1 ZONE     2

    4989 UPPER PART EQS.      4997 LOWER PART EQS.    BAND WIDTH + 1 =  104
 STRESS PERIOD=  1 TIMESTEP=682 LAYER=  1 ZONE=  2 ACTIVE CELLS= 9986 NUMBER OF EQUATIONS=    9986
 
 SOLVING FOR HEAD 

 NO OUTPUT CONTROL FOR STRESS PERIOD    1   TIME STEP  683
 SOLVING FOR ZETA FOR LAYER     1 ZONE     2

    4441 UPPER PART EQS.      4504 LOWER PART EQS.    BAND WIDTH + 1 =  152
 INSUFFICIENT MEMORY FOR DE4 SOLVER:
 MXBW MUST BE AT LEAST  152
 
 SOLVING FOR HEAD 

 NO OUTPUT CONTROL FOR STRESS PERIOD    1   TIME STEP  684
 SOLVING FOR ZETA FOR LAYER     1 ZONE     2

    4989 UPPER PART EQS.      4996 LOWER PART EQS.    BAND WIDTH + 1 =  104
 STRESS PERIOD=  1 TIMESTEP=684 LAYER=  1 ZONE=  2 ACTIVE CELLS= 9985 NUMBER OF EQUATIONS=    9985
 
 SOLVING FOR HEAD 

 NO OUTPUT CONTROL FOR STRESS PERIOD    1   TIME STEP  685
 SOLVING FOR ZETA FOR LAYER     1 ZONE     2

    4441 UPPER PART EQS.      4504 LOWER PART EQS.    BAND WIDTH + 1 =  151
 INSUFFICIENT MEMORY FOR DE4 SOLVER:
 MXBW MUST BE AT LEAST  151
 
 SOLVING FOR HEAD 

 NO OUTPUT CONTROL FOR STRESS PERIOD    1   TIME STEP  686
 SOLVING FOR ZETA FOR LAYER     1 ZONE     2

    4989 UPPER PART EQS.      4995 LOWER PART EQS.    BAND WIDTH + 1 =  103
 STRESS PERIOD=  1 TIMESTEP=686 LAYER=  1 ZONE=  2 ACTIVE CELLS= 9984 NUMBER OF EQUATIONS=    9984
 
 SOLVING FOR HEAD 

 NO OUTPUT CONTROL FOR STRESS PERIOD    1   TIME STEP  687
 SOLVING FOR ZETA FOR LAYER     1 ZONE     2

    4431 UPPER PART EQS.      4502 LOWER PART EQS.    BAND WIDTH + 1 =  159
 INSUFFICIENT MEMORY FOR DE4 SOLVER:
 MXBW MUST BE AT LEAST  159
 
 SOLVING FOR HEAD 

 NO OUTPUT CONTROL FOR STRESS PERIOD    1   TIME STEP  688
 SOLVING FOR ZETA FOR LAYER     1 ZONE     2

    4988 UPPER PART EQS.      4996 LOWER PART EQS.    BAND WIDTH + 1 =  104
 STRESS PERIOD=  1 TIMESTEP=688 LAYER=  1 ZONE=  2 ACTIVE CELLS= 9984 NUMBER OF EQUATIONS=    9984
 
 SOLVING FOR HEAD 

 NO OUTPUT CONTROL FOR STRESS PERIOD    1   TIME STEP  689
 SOLVING FOR ZETA FOR LAYER     1 ZONE     2

    4435 UPPER PART EQS.      4499 LOWER PART EQS.    BAND WIDTH + 1 =  151
 INSUFFICIENT MEMORY FOR DE4 SOLVER:
 MXBW MUST BE AT LEAST  151
 
 SOLVING FOR HEAD 

 NO OUTPUT CONTROL FOR STRESS PERIOD    1   TIME STEP  690
 SOLVING FOR ZETA FOR LAYER     1 ZONE     2

    4989 UPPER PART EQS.      4995 LOWER PART EQS.    BAND WIDTH + 1 =  104
 STRESS PERIOD=  1 TIMESTEP=690 LAYER=  1 ZONE=  2 ACTIVE CELLS= 9984 NUMBER OF EQUATIONS=    9984
 
 SOLVING FOR HEAD 

 NO OUTPUT CONTROL FOR STRESS PERIOD    1   TIME STEP  691
 SOLVING FOR ZETA FOR LAYER     1 ZONE     2

    4430 UPPER PART EQS.      4498 LOWER PART EQS.    BAND WIDTH + 1 =  158
 INSUFFICIENT MEMORY FOR DE4 SOLVER:
 MXBW MUST BE AT LEAST  158
 
 SOLVING FOR HEAD 

 NO OUTPUT CONTROL FOR STRESS PERIOD    1   TIME STEP  692
 SOLVING FOR ZETA FOR LAYER     1 ZONE     2

    4989 UPPER PART EQS.      4995 LOWER PART EQS.    BAND WIDTH + 1 =  103
 STRESS PERIOD=  1 TIMESTEP=692 LAYER=  1 ZONE=  2 ACTIVE CELLS= 9984 NUMBER OF EQUATIONS=    9984
 
 SOLVING FOR HEAD 

 NO OUTPUT CONTROL FOR STRESS PERIOD    1   TIME STEP  693
 SOLVING FOR ZETA FOR LAYER     1 ZONE     2

    4431 UPPER PART EQS.      4497 LOWER PART EQS.    BAND WIDTH + 1 =  156
 INSUFFICIENT MEMORY FOR DE4 SOLVER:
 MXBW MUST BE AT LEAST  156
 
 SOLVING FOR HEAD 

 NO OUTPUT CONTROL FOR STRESS PERIOD    1   TIME STEP  694
 SOLVING FOR ZETA FOR LAYER     1 ZONE     2

    4988 UPPER PART EQS.      4996 LOWER PART EQS.    BAND WIDTH + 1 =  104
 STRESS PERIOD=  1 TIMESTEP=694 LAYER=  1 ZONE=  2 ACTIVE CELLS= 9984 NUMBER OF EQUATIONS=    9984
 
 SOLVING FOR HEAD 

 NO OUTPUT CONTROL FOR STRESS PERIOD    1   TIME STEP  695
 SOLVING FOR ZETA FOR LAYER     1 ZONE     2

    4431 UPPER PART EQS.      4493 LOWER PART EQS.    BAND WIDTH + 1 =  155
 INSUFFICIENT MEMORY FOR DE4 SOLVER:
 MXBW MUST BE AT LEAST  155
 
 SOLVING FOR HEAD 

 NO OUTPUT CONTROL FOR STRESS PERIOD    1   TIME STEP  696
 SOLVING FOR ZETA FOR LAYER     1 ZONE     2

    4989 UPPER PART EQS.      4997 LOWER PART EQS.    BAND WIDTH + 1 =  104
 STRESS PERIOD=  1 TIMESTEP=696 LAYER=  1 ZONE=  2 ACTIVE CELLS= 9986 NUMBER OF EQUATIONS=    9986
 
 SOLVING FOR HEAD 

 NO OUTPUT CONTROL FOR STRESS PERIOD    1   TIME STEP  697
 SOLVING FOR ZETA FOR LAYER     1 ZONE     2

    4436 UPPER PART EQS.      4494 LOWER PART EQS.    BAND WIDTH + 1 =  157
 INSUFFICIENT MEMORY FOR DE4 SOLVER:
 MXBW MUST BE AT LEAST  157
 
 SOLVING FOR HEAD 

 NO OUTPUT CONTROL FOR STRESS PERIOD    1   TIME STEP  698
 SOLVING FOR ZETA FOR LAYER     1 ZONE     2

    4987 UPPER PART EQS.      4995 LOWER PART EQS.    BAND WIDTH + 1 =  105
 STRESS PERIOD=  1 TIMESTEP=698 LAYER=  1 ZONE=  2 ACTIVE CELLS= 9982 NUMBER OF EQUATIONS=    9982
 
 SOLVING FOR HEAD 

 NO OUTPUT CONTROL FOR STRESS PERIOD    1   TIME STEP  699
 SOLVING FOR ZETA FOR LAYER     1 ZONE     2

    4431 UPPER PART EQS.      4491 LOWER PART EQS.    BAND WIDTH + 1 =  154
 INSUFFICIENT MEMORY FOR DE4 SOLVER:
 MXBW MUST BE AT LEAST  154
 
 SOLVING FOR HEAD 

 NO OUTPUT CONTROL FOR STRESS PERIOD    1   TIME STEP  700
 SOLVING FOR ZETA FOR LAYER     1 ZONE     2

    4989 UPPER PART EQS.      4996 LOWER PART EQS.    BAND WIDTH + 1 =  104
 STRESS PERIOD=  1 TIMESTEP=700 LAYER=  1 ZONE=  2 ACTIVE CELLS= 9985 NUMBER OF EQUATIONS=    9985
 
 SOLVING FOR HEAD 

 NO OUTPUT CONTROL FOR STRESS PERIOD    1   TIME STEP  701
 SOLVING FOR ZETA FOR LAYER     1 ZONE     2

    4436 UPPER PART EQS.      4496 LOWER PART EQS.    BAND WIDTH + 1 =  158
 INSUFFICIENT MEMORY FOR DE4 SOLVER:
 MXBW MUST BE AT LEAST  158
 
 SOLVING FOR HEAD 

 NO OUTPUT CONTROL FOR STRESS PERIOD    1   TIME STEP  702
 SOLVING FOR ZETA FOR LAYER     1 ZONE     2

    4988 UPPER PART EQS.      4993 LOWER PART EQS.    BAND WIDTH + 1 =  105
 STRESS PERIOD=  1 TIMESTEP=702 LAYER=  1 ZONE=  2 ACTIVE CELLS= 9981 NUMBER OF EQUATIONS=    9981
 
 SOLVING FOR HEAD 

 NO OUTPUT CONTROL FOR STRESS PERIOD    1   TIME STEP  703
 SOLVING FOR ZETA FOR LAYER     1 ZONE     2

    4434 UPPER PART EQS.      4490 LOWER PART EQS.    BAND WIDTH + 1 =  152
 INSUFFICIENT MEMORY FOR DE4 SOLVER:
 MXBW MUST BE AT LEAST  152
 
 SOLVING FOR HEAD 

 NO OUTPUT CONTROL FOR STRESS PERIOD    1   TIME STEP  704
 SOLVING FOR ZETA FOR LAYER     1 ZONE     2

    4987 UPPER PART EQS.      4997 LOWER PART EQS.    BAND WIDTH + 1 =  104
 STRESS PERIOD=  1 TIMESTEP=704 LAYER=  1 ZONE=  2 ACTIVE CELLS= 9984 NUMBER OF EQUATIONS=    9984
 
 SOLVING FOR HEAD 

 NO OUTPUT CONTROL FOR STRESS PERIOD    1   TIME STEP  705
 SOLVING FOR ZETA FOR LAYER     1 ZONE     2

    4432 UPPER PART EQS.      4495 LOWER PART EQS.    BAND WIDTH + 1 =  156
 INSUFFICIENT MEMORY FOR DE4 SOLVER:
 MXBW MUST BE AT LEAST  156
 
 SOLVING FOR HEAD 

 NO OUTPUT CONTROL FOR STRESS PERIOD    1   TIME STEP  706
 SOLVING FOR ZETA FOR LAYER     1 ZONE     2

    4989 UPPER PART EQS.      4994 LOWER PART EQS.    BAND WIDTH + 1 =  104
 STRESS PERIOD=  1 TIMESTEP=706 LAYER=  1 ZONE=  2 ACTIVE CELLS= 9983 NUMBER OF EQUATIONS=    9983
 
 SOLVING FOR HEAD 

 NO OUTPUT CONTROL FOR STRESS PERIOD    1   TIME STEP  707
 SOLVING FOR ZETA FOR LAYER     1 ZONE     2

    4431 UPPER PART EQS.      4493 LOWER PART EQS.    BAND WIDTH + 1 =  157
 INSUFFICIENT MEMORY FOR DE4 SOLVER:
 MXBW MUST BE AT LEAST  157
 
 SOLVING FOR HEAD 

 NO OUTPUT CONTROL FOR STRESS PERIOD    1   TIME STEP  708
 SOLVING FOR ZETA FOR LAYER     1 ZONE     2

    4985 UPPER PART EQS.      4994 LOWER PART EQS.    BAND WIDTH + 1 =  105
 STRESS PERIOD=  1 TIMESTEP=708 LAYER=  1 ZONE=  2 ACTIVE CELLS= 9979 NUMBER OF EQUATIONS=    9979
 
 SOLVING FOR HEAD 

 NO OUTPUT CONTROL FOR STRESS PERIOD    1   TIME STEP  709
 SOLVING FOR ZETA FOR LAYER     1 ZONE     2

    4434 UPPER PART EQS.      4499 LOWER PART EQS.    BAND WIDTH + 1 =  159
 INSUFFICIENT MEMORY FOR DE4 SOLVER:
 MXBW MUST BE AT LEAST  159
 
 SOLVING FOR HEAD 

 NO OUTPUT CONTROL FOR STRESS PERIOD    1   TIME STEP  710
 SOLVING FOR ZETA FOR LAYER     1 ZONE     2

    4989 UPPER PART EQS.      4993 LOWER PART EQS.    BAND WIDTH + 1 =  104
 STRESS PERIOD=  1 TIMESTEP=710 LAYER=  1 ZONE=  2 ACTIVE CELLS= 9982 NUMBER OF EQUATIONS=    9982
 
 SOLVING FOR HEAD 

 NO OUTPUT CONTROL FOR STRESS PERIOD    1   TIME STEP  711
 SOLVING FOR ZETA FOR LAYER     1 ZONE     2

    4433 UPPER PART EQS.      4494 LOWER PART EQS.    BAND WIDTH + 1 =  154
 INSUFFICIENT MEMORY FOR DE4 SOLVER:
 MXBW MUST BE AT LEAST  154
 
 SOLVING FOR HEAD 

 NO OUTPUT CONTROL FOR STRESS PERIOD    1   TIME STEP  712
 SOLVING FOR ZETA FOR LAYER     1 ZONE     2

    4987 UPPER PART EQS.      4995 LOWER PART EQS.    BAND WIDTH + 1 =  104
 STRESS PERIOD=  1 TIMESTEP=712 LAYER=  1 ZONE=  2 ACTIVE CELLS= 9982 NUMBER OF EQUATIONS=    9982
 
 SOLVING FOR HEAD 

 NO OUTPUT CONTROL FOR STRESS PERIOD    1   TIME STEP  713
 SOLVING FOR ZETA FOR LAYER     1 ZONE     2

    4435 UPPER PART EQS.      4498 LOWER PART EQS.    BAND WIDTH + 1 =  156
 INSUFFICIENT MEMORY FOR DE4 SOLVER:
 MXBW MUST BE AT LEAST  156
 
 SOLVING FOR HEAD 

 NO OUTPUT CONTROL FOR STRESS PERIOD    1   TIME STEP  714
 SOLVING FOR ZETA FOR LAYER     1 ZONE     2

    4988 UPPER PART EQS.      4996 LOWER PART EQS.    BAND WIDTH + 1 =  104
 STRESS PERIOD=  1 TIMESTEP=714 LAYER=  1 ZONE=  2 ACTIVE CELLS= 9984 NUMBER OF EQUATIONS=    9984
 
 SOLVING FOR HEAD 

 NO OUTPUT CONTROL FOR STRESS PERIOD    1   TIME STEP  715
 SOLVING FOR ZETA FOR LAYER     1 ZONE     2

    4430 UPPER PART EQS.      4491 LOWER PART EQS.    BAND WIDTH + 1 =  153
 INSUFFICIENT MEMORY FOR DE4 SOLVER:
 MXBW MUST BE AT LEAST  153
 
 SOLVING FOR HEAD 

 NO OUTPUT CONTROL FOR STRESS PERIOD    1   TIME STEP  716
 SOLVING FOR ZETA FOR LAYER     1 ZONE     2

    4985 UPPER PART EQS.      4996 LOWER PART EQS.    BAND WIDTH + 1 =  106
 INSUFFICIENT MEMORY FOR DE4 SOLVER:
 MXBW MUST BE AT LEAST  106
 
 SOLVING FOR HEAD 

 NO OUTPUT CONTROL FOR STRESS PERIOD    1   TIME STEP  717
 SOLVING FOR ZETA FOR LAYER     1 ZONE     2

    4989 UPPER PART EQS.      4997 LOWER PART EQS.    BAND WIDTH + 1 =  104
 STRESS PERIOD=  1 TIMESTEP=717 LAYER=  1 ZONE=  2 ACTIVE CELLS= 9986 NUMBER OF EQUATIONS=    9986
 
 SOLVING FOR HEAD 

 NO OUTPUT CONTROL FOR STRESS PERIOD    1   TIME STEP  718
 SOLVING FOR ZETA FOR LAYER     1 ZONE     2

    4433 UPPER PART EQS.      4503 LOWER PART EQS.    BAND WIDTH + 1 =  160
 INSUFFICIENT MEMORY FOR DE4 SOLVER:
 MXBW MUST BE AT LEAST  160
 
 SOLVING FOR HEAD 

 NO OUTPUT CONTROL FOR STRESS PERIOD    1   TIME STEP  719
 SOLVING FOR ZETA FOR LAYER     1 ZONE     2

    4983 UPPER PART EQS.      4994 LOWER PART EQS.    BAND WIDTH + 1 =  108
 INSUFFICIENT MEMORY FOR DE4 SOLVER:
 MXBW MUST BE AT LEAST  108
 
 SOLVING FOR HEAD 

 NO OUTPUT CONTROL FOR STRESS PERIOD    1   TIME STEP  720
 SOLVING FOR ZETA FOR LAYER     1 ZONE     2

    4986 UPPER PART EQS.      4997 LOWER PART EQS.    BAND WIDTH + 1 =  106
 INSUFFICIENT MEMORY FOR DE4 SOLVER:
 MXBW MUST BE AT LEAST  106
 
 SOLVING FOR HEAD 

 NO OUTPUT CONTROL FOR STRESS PERIOD    1   TIME STEP  721
 SOLVING FOR ZETA FOR LAYER     1 ZONE     2

    4987 UPPER PART EQS.      4997 LOWER PART EQS.    BAND WIDTH + 1 =  106
 INSUFFICIENT MEMORY FOR DE4 SOLVER:
 MXBW MUST BE AT LEAST  106
 
 SOLVING FOR HEAD 

 NO OUTPUT CONTROL FOR STRESS PERIOD    1   TIME STEP  722
 SOLVING FOR ZETA FOR LAYER     1 ZONE     2
 INSUFFICIENT MEMORY FOR DE4 SOLVER:
 MXBW MUST BE AT LEAST  106
 
 SOLVING FOR HEAD 

 NO OUTPUT CONTROL FOR STRESS PERIOD    1   TIME STEP  723
 SOLVING FOR ZETA FOR LAYER     1 ZONE     2
 INSUFFICIENT MEMORY FOR DE4 SOLVER:
 MXBW MUST BE AT LEAST  106
 
 SOLVING FOR HEAD 

 NO OUTPUT CONTROL FOR STRESS PERIOD    1   TIME STEP  724
 SOLVING FOR ZETA FOR LAYER     1 ZONE     2
 INSUFFICIENT MEMORY FOR DE4 SOLVER:
 MXBW MUST BE AT LEAST  106
 
 SOLVING FOR HEAD 

 NO OUTPUT CONTROL FOR STRESS PERIOD    1   TIME STEP  725
 SOLVING FOR ZETA FOR LAYER     1 ZONE     2
 INSUFFICIENT MEMORY FOR DE4 SOLVER:
 MXBW MUST BE AT LEAST  106
 
 SOLVING FOR HEAD 

 NO OUTPUT CONTROL FOR STRESS PERIOD    1   TIME STEP  726
 SOLVING FOR ZETA FOR LAYER     1 ZONE     2
 INSUFFICIENT MEMORY FOR DE4 SOLVER:
 MXBW MUST BE AT LEAST  106
 
 SOLVING FOR HEAD 

 NO OUTPUT CONTROL FOR STRESS PERIOD    1   TIME STEP  727
 SOLVING FOR ZETA FOR LAYER     1 ZONE     2
 INSUFFICIENT MEMORY FOR DE4 SOLVER:
 MXBW MUST BE AT LEAST  106
 
 SOLVING FOR HEAD 

 NO OUTPUT CONTROL FOR STRESS PERIOD    1   TIME STEP  728
 SOLVING FOR ZETA FOR LAYER     1 ZONE     2
 INSUFFICIENT MEMORY FOR DE4 SOLVER:
 MXBW MUST BE AT LEAST  106
 
 SOLVING FOR HEAD 

 NO OUTPUT CONTROL FOR STRESS PERIOD    1   TIME STEP  729
 SOLVING FOR ZETA FOR LAYER     1 ZONE     2
 INSUFFICIENT MEMORY FOR DE4 SOLVER:
 MXBW MUST BE AT LEAST  106
 
 SOLVING FOR HEAD 

 NO OUTPUT CONTROL FOR STRESS PERIOD    1   TIME STEP  730
 SOLVING FOR ZETA FOR LAYER     1 ZONE     2
 INSUFFICIENT MEMORY FOR DE4 SOLVER:
 MXBW MUST BE AT LEAST  106
 
 SOLVING FOR HEAD 

 NO OUTPUT CONTROL FOR STRESS PERIOD    1   TIME STEP  731
 SOLVING FOR ZETA FOR LAYER     1 ZONE     2
 INSUFFICIENT MEMORY FOR DE4 SOLVER:
 MXBW MUST BE AT LEAST  106
 
 SOLVING FOR HEAD 

 NO OUTPUT CONTROL FOR STRESS PERIOD    1   TIME STEP  732
 SOLVING FOR ZETA FOR LAYER     1 ZONE     2
 INSUFFICIENT MEMORY FOR DE4 SOLVER:
 MXBW MUST BE AT LEAST  106
 
 SOLVING FOR HEAD 

 NO OUTPUT CONTROL FOR STRESS PERIOD    1   TIME STEP  733
 SOLVING FOR ZETA FOR LAYER     1 ZONE     2
 INSUFFICIENT MEMORY FOR DE4 SOLVER:
 MXBW MUST BE AT LEAST  106
 
 SOLVING FOR HEAD 

 NO OUTPUT CONTROL FOR STRESS PERIOD    1   TIME STEP  734
 SOLVING FOR ZETA FOR LAYER     1 ZONE     2
 INSUFFICIENT MEMORY FOR DE4 SOLVER:
 MXBW MUST BE AT LEAST  106
 
 SOLVING FOR HEAD 

 NO OUTPUT CONTROL FOR STRESS PERIOD    1   TIME STEP  735
 SOLVING FOR ZETA FOR LAYER     1 ZONE     2
 INSUFFICIENT MEMORY FOR DE4 SOLVER:
 MXBW MUST BE AT LEAST  106
 
 SOLVING FOR HEAD 

 NO OUTPUT CONTROL FOR STRESS PERIOD    1   TIME STEP  736
 SOLVING FOR ZETA FOR LAYER     1 ZONE     2
 INSUFFICIENT MEMORY FOR DE4 SOLVER:
 MXBW MUST BE AT LEAST  106
 
 SOLVING FOR HEAD 

 NO OUTPUT CONTROL FOR STRESS PERIOD    1   TIME STEP  737
 SOLVING FOR ZETA FOR LAYER     1 ZONE     2
 INSUFFICIENT MEMORY FOR DE4 SOLVER:
 MXBW MUST BE AT LEAST  106
 
 SOLVING FOR HEAD 

 NO OUTPUT CONTROL FOR STRESS PERIOD    1   TIME STEP  738
 SOLVING FOR ZETA FOR LAYER     1 ZONE     2
 INSUFFICIENT MEMORY FOR DE4 SOLVER:
 MXBW MUST BE AT LEAST  106
 
 SOLVING FOR HEAD 

 NO OUTPUT CONTROL FOR STRESS PERIOD    1   TIME STEP  739
 SOLVING FOR ZETA FOR LAYER     1 ZONE     2
 INSUFFICIENT MEMORY FOR DE4 SOLVER:
 MXBW MUST BE AT LEAST  106
 
 SOLVING FOR HEAD 

 NO OUTPUT CONTROL FOR STRESS PERIOD    1   TIME STEP  740
 SOLVING FOR ZETA FOR LAYER     1 ZONE     2
 INSUFFICIENT MEMORY FOR DE4 SOLVER:
 MXBW MUST BE AT LEAST  106
 
 SOLVING FOR HEAD 

 NO OUTPUT CONTROL FOR STRESS PERIOD    1   TIME STEP  741
 SOLVING FOR ZETA FOR LAYER     1 ZONE     2
 INSUFFICIENT MEMORY FOR DE4 SOLVER:
 MXBW MUST BE AT LEAST  106
 
 SOLVING FOR HEAD 

 NO OUTPUT CONTROL FOR STRESS PERIOD    1   TIME STEP  742
 SOLVING FOR ZETA FOR LAYER     1 ZONE     2
 INSUFFICIENT MEMORY FOR DE4 SOLVER:
 MXBW MUST BE AT LEAST  106
 
 SOLVING FOR HEAD 

 NO OUTPUT CONTROL FOR STRESS PERIOD    1   TIME STEP  743
 SOLVING FOR ZETA FOR LAYER     1 ZONE     2
 INSUFFICIENT MEMORY FOR DE4 SOLVER:
 MXBW MUST BE AT LEAST  106
 
 SOLVING FOR HEAD 

 NO OUTPUT CONTROL FOR STRESS PERIOD    1   TIME STEP  744
 SOLVING FOR ZETA FOR LAYER     1 ZONE     2
 INSUFFICIENT MEMORY FOR DE4 SOLVER:
 MXBW MUST BE AT LEAST  106
 
 SOLVING FOR HEAD 

 NO OUTPUT CONTROL FOR STRESS PERIOD    1   TIME STEP  745
 SOLVING FOR ZETA FOR LAYER     1 ZONE     2
 INSUFFICIENT MEMORY FOR DE4 SOLVER:
 MXBW MUST BE AT LEAST  106
 
 SOLVING FOR HEAD 

 NO OUTPUT CONTROL FOR STRESS PERIOD    1   TIME STEP  746
 SOLVING FOR ZETA FOR LAYER     1 ZONE     2
 INSUFFICIENT MEMORY FOR DE4 SOLVER:
 MXBW MUST BE AT LEAST  106
 
 SOLVING FOR HEAD 

 NO OUTPUT CONTROL FOR STRESS PERIOD    1   TIME STEP  747
 SOLVING FOR ZETA FOR LAYER     1 ZONE     2
 INSUFFICIENT MEMORY FOR DE4 SOLVER:
 MXBW MUST BE AT LEAST  106
 
 SOLVING FOR HEAD 

 NO OUTPUT CONTROL FOR STRESS PERIOD    1   TIME STEP  748
 SOLVING FOR ZETA FOR LAYER     1 ZONE     2
 INSUFFICIENT MEMORY FOR DE4 SOLVER:
 MXBW MUST BE AT LEAST  106
 
 SOLVING FOR HEAD 

 NO OUTPUT CONTROL FOR STRESS PERIOD    1   TIME STEP  749
 SOLVING FOR ZETA FOR LAYER     1 ZONE     2
 INSUFFICIENT MEMORY FOR DE4 SOLVER:
 MXBW MUST BE AT LEAST  106
 
 SOLVING FOR HEAD 

 NO OUTPUT CONTROL FOR STRESS PERIOD    1   TIME STEP  750
 SOLVING FOR ZETA FOR LAYER     1 ZONE     2
 INSUFFICIENT MEMORY FOR DE4 SOLVER:
 MXBW MUST BE AT LEAST  106
 
 SOLVING FOR HEAD 

 NO OUTPUT CONTROL FOR STRESS PERIOD    1   TIME STEP  751
 SOLVING FOR ZETA FOR LAYER     1 ZONE     2
 INSUFFICIENT MEMORY FOR DE4 SOLVER:
 MXBW MUST BE AT LEAST  106
 
 SOLVING FOR HEAD 

 NO OUTPUT CONTROL FOR STRESS PERIOD    1   TIME STEP  752
 SOLVING FOR ZETA FOR LAYER     1 ZONE     2
 INSUFFICIENT MEMORY FOR DE4 SOLVER:
 MXBW MUST BE AT LEAST  106
 
 SOLVING FOR HEAD 

 NO OUTPUT CONTROL FOR STRESS PERIOD    1   TIME STEP  753
 SOLVING FOR ZETA FOR LAYER     1 ZONE     2
 INSUFFICIENT MEMORY FOR DE4 SOLVER:
 MXBW MUST BE AT LEAST  106
 
 SOLVING FOR HEAD 

 NO OUTPUT CONTROL FOR STRESS PERIOD    1   TIME STEP  754
 SOLVING FOR ZETA FOR LAYER     1 ZONE     2
 INSUFFICIENT MEMORY FOR DE4 SOLVER:
 MXBW MUST BE AT LEAST  106
 
 SOLVING FOR HEAD 

 NO OUTPUT CONTROL FOR STRESS PERIOD    1   TIME STEP  755
 SOLVING FOR ZETA FOR LAYER     1 ZONE     2
 INSUFFICIENT MEMORY FOR DE4 SOLVER:
 MXBW MUST BE AT LEAST  106
 
 SOLVING FOR HEAD 

 NO OUTPUT CONTROL FOR STRESS PERIOD    1   TIME STEP  756
 SOLVING FOR ZETA FOR LAYER     1 ZONE     2
 INSUFFICIENT MEMORY FOR DE4 SOLVER:
 MXBW MUST BE AT LEAST  106
 
 SOLVING FOR HEAD 

 NO OUTPUT CONTROL FOR STRESS PERIOD    1   TIME STEP  757
 SOLVING FOR ZETA FOR LAYER     1 ZONE     2
 INSUFFICIENT MEMORY FOR DE4 SOLVER:
 MXBW MUST BE AT LEAST  106
 
 SOLVING FOR HEAD 

 NO OUTPUT CONTROL FOR STRESS PERIOD    1   TIME STEP  758
 SOLVING FOR ZETA FOR LAYER     1 ZONE     2
 INSUFFICIENT MEMORY FOR DE4 SOLVER:
 MXBW MUST BE AT LEAST  106
 
 SOLVING FOR HEAD 

 NO OUTPUT CONTROL FOR STRESS PERIOD    1   TIME STEP  759
 SOLVING FOR ZETA FOR LAYER     1 ZONE     2
 INSUFFICIENT MEMORY FOR DE4 SOLVER:
 MXBW MUST BE AT LEAST  106
 
 SOLVING FOR HEAD 

 NO OUTPUT CONTROL FOR STRESS PERIOD    1   TIME STEP  760
 SOLVING FOR ZETA FOR LAYER     1 ZONE     2
 INSUFFICIENT MEMORY FOR DE4 SOLVER:
 MXBW MUST BE AT LEAST  106
 
 SOLVING FOR HEAD 

 NO OUTPUT CONTROL FOR STRESS PERIOD    1   TIME STEP  761
 SOLVING FOR ZETA FOR LAYER     1 ZONE     2
 INSUFFICIENT MEMORY FOR DE4 SOLVER:
 MXBW MUST BE AT LEAST  106
 
 SOLVING FOR HEAD 

 NO OUTPUT CONTROL FOR STRESS PERIOD    1   TIME STEP  762
 SOLVING FOR ZETA FOR LAYER     1 ZONE     2
 INSUFFICIENT MEMORY FOR DE4 SOLVER:
 MXBW MUST BE AT LEAST  106
 
 SOLVING FOR HEAD 

 NO OUTPUT CONTROL FOR STRESS PERIOD    1   TIME STEP  763
 SOLVING FOR ZETA FOR LAYER     1 ZONE     2
 INSUFFICIENT MEMORY FOR DE4 SOLVER:
 MXBW MUST BE AT LEAST  106
 
 SOLVING FOR HEAD 

 NO OUTPUT CONTROL FOR STRESS PERIOD    1   TIME STEP  764
 SOLVING FOR ZETA FOR LAYER     1 ZONE     2
 INSUFFICIENT MEMORY FOR DE4 SOLVER:
 MXBW MUST BE AT LEAST  106
 
 SOLVING FOR HEAD 

 NO OUTPUT CONTROL FOR STRESS PERIOD    1   TIME STEP  765
 SOLVING FOR ZETA FOR LAYER     1 ZONE     2
 INSUFFICIENT MEMORY FOR DE4 SOLVER:
 MXBW MUST BE AT LEAST  106
 
 SOLVING FOR HEAD 

 NO OUTPUT CONTROL FOR STRESS PERIOD    1   TIME STEP  766
 SOLVING FOR ZETA FOR LAYER     1 ZONE     2
 INSUFFICIENT MEMORY FOR DE4 SOLVER:
 MXBW MUST BE AT LEAST  106
 
 SOLVING FOR HEAD 

 NO OUTPUT CONTROL FOR STRESS PERIOD    1   TIME STEP  767
 SOLVING FOR ZETA FOR LAYER     1 ZONE     2
 INSUFFICIENT MEMORY FOR DE4 SOLVER:
 MXBW MUST BE AT LEAST  106
 
 SOLVING FOR HEAD 

 NO OUTPUT CONTROL FOR STRESS PERIOD    1   TIME STEP  768
 SOLVING FOR ZETA FOR LAYER     1 ZONE     2
 INSUFFICIENT MEMORY FOR DE4 SOLVER:
 MXBW MUST BE AT LEAST  106
 
 SOLVING FOR HEAD 

 NO OUTPUT CONTROL FOR STRESS PERIOD    1   TIME STEP  769
 SOLVING FOR ZETA FOR LAYER     1 ZONE     2
 INSUFFICIENT MEMORY FOR DE4 SOLVER:
 MXBW MUST BE AT LEAST  106
 
 SOLVING FOR HEAD 

 NO OUTPUT CONTROL FOR STRESS PERIOD    1   TIME STEP  770
 SOLVING FOR ZETA FOR LAYER     1 ZONE     2
 INSUFFICIENT MEMORY FOR DE4 SOLVER:
 MXBW MUST BE AT LEAST  106
 
 SOLVING FOR HEAD 

 NO OUTPUT CONTROL FOR STRESS PERIOD    1   TIME STEP  771
 SOLVING FOR ZETA FOR LAYER     1 ZONE     2
 INSUFFICIENT MEMORY FOR DE4 SOLVER:
 MXBW MUST BE AT LEAST  106
 
 SOLVING FOR HEAD 

 NO OUTPUT CONTROL FOR STRESS PERIOD    1   TIME STEP  772
 SOLVING FOR ZETA FOR LAYER     1 ZONE     2
 INSUFFICIENT MEMORY FOR DE4 SOLVER:
 MXBW MUST BE AT LEAST  106
 
 SOLVING FOR HEAD 

 NO OUTPUT CONTROL FOR STRESS PERIOD    1   TIME STEP  773
 SOLVING FOR ZETA FOR LAYER     1 ZONE     2
 INSUFFICIENT MEMORY FOR DE4 SOLVER:
 MXBW MUST BE AT LEAST  106
 
 SOLVING FOR HEAD 

 NO OUTPUT CONTROL FOR STRESS PERIOD    1   TIME STEP  774
 SOLVING FOR ZETA FOR LAYER     1 ZONE     2
 INSUFFICIENT MEMORY FOR DE4 SOLVER:
 MXBW MUST BE AT LEAST  106
 
 SOLVING FOR HEAD 

 NO OUTPUT CONTROL FOR STRESS PERIOD    1   TIME STEP  775
 SOLVING FOR ZETA FOR LAYER     1 ZONE     2
 INSUFFICIENT MEMORY FOR DE4 SOLVER:
 MXBW MUST BE AT LEAST  106
 
 SOLVING FOR HEAD 

 NO OUTPUT CONTROL FOR STRESS PERIOD    1   TIME STEP  776
 SOLVING FOR ZETA FOR LAYER     1 ZONE     2
 INSUFFICIENT MEMORY FOR DE4 SOLVER:
 MXBW MUST BE AT LEAST  106
 
 SOLVING FOR HEAD 

 NO OUTPUT CONTROL FOR STRESS PERIOD    1   TIME STEP  777
 SOLVING FOR ZETA FOR LAYER     1 ZONE     2
 INSUFFICIENT MEMORY FOR DE4 SOLVER:
 MXBW MUST BE AT LEAST  106
 
 SOLVING FOR HEAD 

 NO OUTPUT CONTROL FOR STRESS PERIOD    1   TIME STEP  778
 SOLVING FOR ZETA FOR LAYER     1 ZONE     2
 INSUFFICIENT MEMORY FOR DE4 SOLVER:
 MXBW MUST BE AT LEAST  106
 
 SOLVING FOR HEAD 

 NO OUTPUT CONTROL FOR STRESS PERIOD    1   TIME STEP  779
 SOLVING FOR ZETA FOR LAYER     1 ZONE     2
 INSUFFICIENT MEMORY FOR DE4 SOLVER:
 MXBW MUST BE AT LEAST  106
 
 SOLVING FOR HEAD 

 NO OUTPUT CONTROL FOR STRESS PERIOD    1   TIME STEP  780
 SOLVING FOR ZETA FOR LAYER     1 ZONE     2
 INSUFFICIENT MEMORY FOR DE4 SOLVER:
 MXBW MUST BE AT LEAST  106
 
 SOLVING FOR HEAD 

 NO OUTPUT CONTROL FOR STRESS PERIOD    1   TIME STEP  781
 SOLVING FOR ZETA FOR LAYER     1 ZONE     2
 INSUFFICIENT MEMORY FOR DE4 SOLVER:
 MXBW MUST BE AT LEAST  106
 
 SOLVING FOR HEAD 

 NO OUTPUT CONTROL FOR STRESS PERIOD    1   TIME STEP  782
 SOLVING FOR ZETA FOR LAYER     1 ZONE     2
 INSUFFICIENT MEMORY FOR DE4 SOLVER:
 MXBW MUST BE AT LEAST  106
 
 SOLVING FOR HEAD 

 NO OUTPUT CONTROL FOR STRESS PERIOD    1   TIME STEP  783
 SOLVING FOR ZETA FOR LAYER     1 ZONE     2
 INSUFFICIENT MEMORY FOR DE4 SOLVER:
 MXBW MUST BE AT LEAST  106
 
 SOLVING FOR HEAD 

 NO OUTPUT CONTROL FOR STRESS PERIOD    1   TIME STEP  784
 SOLVING FOR ZETA FOR LAYER     1 ZONE     2
 INSUFFICIENT MEMORY FOR DE4 SOLVER:
 MXBW MUST BE AT LEAST  106
 
 SOLVING FOR HEAD 

 NO OUTPUT CONTROL FOR STRESS PERIOD    1   TIME STEP  785
 SOLVING FOR ZETA FOR LAYER     1 ZONE     2
 INSUFFICIENT MEMORY FOR DE4 SOLVER:
 MXBW MUST BE AT LEAST  106
 
 SOLVING FOR HEAD 

 NO OUTPUT CONTROL FOR STRESS PERIOD    1   TIME STEP  786
 SOLVING FOR ZETA FOR LAYER     1 ZONE     2
 INSUFFICIENT MEMORY FOR DE4 SOLVER:
 MXBW MUST BE AT LEAST  106
 
 SOLVING FOR HEAD 

 NO OUTPUT CONTROL FOR STRESS PERIOD    1   TIME STEP  787
 SOLVING FOR ZETA FOR LAYER     1 ZONE     2
 INSUFFICIENT MEMORY FOR DE4 SOLVER:
 MXBW MUST BE AT LEAST  106
 
 SOLVING FOR HEAD 

 NO OUTPUT CONTROL FOR STRESS PERIOD    1   TIME STEP  788
 SOLVING FOR ZETA FOR LAYER     1 ZONE     2
 INSUFFICIENT MEMORY FOR DE4 SOLVER:
 MXBW MUST BE AT LEAST  106
 
 SOLVING FOR HEAD 

 NO OUTPUT CONTROL FOR STRESS PERIOD    1   TIME STEP  789
 SOLVING FOR ZETA FOR LAYER     1 ZONE     2
 INSUFFICIENT MEMORY FOR DE4 SOLVER:
 MXBW MUST BE AT LEAST  106
 
 SOLVING FOR HEAD 

 NO OUTPUT CONTROL FOR STRESS PERIOD    1   TIME STEP  790
 SOLVING FOR ZETA FOR LAYER     1 ZONE     2
 INSUFFICIENT MEMORY FOR DE4 SOLVER:
 MXBW MUST BE AT LEAST  106
 
 SOLVING FOR HEAD 

 NO OUTPUT CONTROL FOR STRESS PERIOD    1   TIME STEP  791
 SOLVING FOR ZETA FOR LAYER     1 ZONE     2
 INSUFFICIENT MEMORY FOR DE4 SOLVER:
 MXBW MUST BE AT LEAST  106
 
 SOLVING FOR HEAD 

 NO OUTPUT CONTROL FOR STRESS PERIOD    1   TIME STEP  792
 SOLVING FOR ZETA FOR LAYER     1 ZONE     2
 INSUFFICIENT MEMORY FOR DE4 SOLVER:
 MXBW MUST BE AT LEAST  106
 
 SOLVING FOR HEAD 

 NO OUTPUT CONTROL FOR STRESS PERIOD    1   TIME STEP  793
 SOLVING FOR ZETA FOR LAYER     1 ZONE     2
 INSUFFICIENT MEMORY FOR DE4 SOLVER:
 MXBW MUST BE AT LEAST  106
 
 SOLVING FOR HEAD 

 NO OUTPUT CONTROL FOR STRESS PERIOD    1   TIME STEP  794
 SOLVING FOR ZETA FOR LAYER     1 ZONE     2
 INSUFFICIENT MEMORY FOR DE4 SOLVER:
 MXBW MUST BE AT LEAST  106
 
 SOLVING FOR HEAD 

 NO OUTPUT CONTROL FOR STRESS PERIOD    1   TIME STEP  795
 SOLVING FOR ZETA FOR LAYER     1 ZONE     2
 INSUFFICIENT MEMORY FOR DE4 SOLVER:
 MXBW MUST BE AT LEAST  106
 
 SOLVING FOR HEAD 

 NO OUTPUT CONTROL FOR STRESS PERIOD    1   TIME STEP  796
 SOLVING FOR ZETA FOR LAYER     1 ZONE     2
 INSUFFICIENT MEMORY FOR DE4 SOLVER:
 MXBW MUST BE AT LEAST  106
 
 SOLVING FOR HEAD 

 NO OUTPUT CONTROL FOR STRESS PERIOD    1   TIME STEP  797
 SOLVING FOR ZETA FOR LAYER     1 ZONE     2
 INSUFFICIENT MEMORY FOR DE4 SOLVER:
 MXBW MUST BE AT LEAST  106
 
 SOLVING FOR HEAD 

 NO OUTPUT CONTROL FOR STRESS PERIOD    1   TIME STEP  798
 SOLVING FOR ZETA FOR LAYER     1 ZONE     2
 INSUFFICIENT MEMORY FOR DE4 SOLVER:
 MXBW MUST BE AT LEAST  106
 
 SOLVING FOR HEAD 

 NO OUTPUT CONTROL FOR STRESS PERIOD    1   TIME STEP  799
 SOLVING FOR ZETA FOR LAYER     1 ZONE     2
 INSUFFICIENT MEMORY FOR DE4 SOLVER:
 MXBW MUST BE AT LEAST  106
 
 SOLVING FOR HEAD 

 OUTPUT CONTROL FOR STRESS PERIOD    1   TIME STEP  800
    PRINT BUDGET
    SAVE HEAD FOR ALL LAYERS
 SOLVING FOR ZETA FOR LAYER     1 ZONE     2
 INSUFFICIENT MEMORY FOR DE4 SOLVER:
 MXBW MUST BE AT LEAST  106
 UBUDSV SAVING "      ZETASRF  1" ON UNIT 55 AT TIME STEP800, STRESS PERIOD    1


                      VOLUMETRIC SWI ZONE BUDGET FOR ENTIRE MODEL
                     AT END OF TIME STEP  800 IN STRESS PERIOD   1
                                      ZONE     1
  -----------------------------------------------------------------------------------

        CUMULATIVE VOLUMES      L**3       RATES FOR THIS TIME STEP      L**3/T
        ------------------                 ------------------------

              IN:                                      IN:
              ---                                      ---
             BOUNDARIES =   341584640.0000            BOUNDARIES =        5858.7690
          CONSTANT HEAD =           0.0000         CONSTANT HEAD =           0.0000
            ZONE CHANGE =     7965907.5000           ZONE CHANGE =           0.0000
       ZONE CHG TIP/TOE =    61564576.0000      ZONE CHG TIP/TOE =           0.0000
            ZONE MIXING =           0.0000           ZONE MIXING =           0.0000

               TOTAL IN =   411115136.0000              TOTAL IN =        5858.7690

             OUT:                                     OUT:
             ----                                     ----
             BOUNDARIES =   191350768.0000            BOUNDARIES =        5861.7627
          CONSTANT HEAD =           0.0000         CONSTANT HEAD =           0.0000
            ZONE CHANGE =    94032848.0000           ZONE CHANGE =           0.0000
       ZONE CHG TIP/TOE =     1242196.5000      ZONE CHG TIP/TOE =           0.0000
            ZONE MIXING =           0.0000           ZONE MIXING =           0.0000

              TOTAL OUT =   286625824.0000             TOTAL OUT =        5861.7627

               IN - OUT =   124489312.0000              IN - OUT =          -2.9937

    PERCENT DISCREPANCY =          35.68     PERCENT DISCREPANCY =          -0.05



                      VOLUMETRIC SWI ZONE BUDGET FOR ENTIRE MODEL
                     AT END OF TIME STEP  800 IN STRESS PERIOD   1
                                      ZONE     2
  -----------------------------------------------------------------------------------

        CUMULATIVE VOLUMES      L**3       RATES FOR THIS TIME STEP      L**3/T
        ------------------                 ------------------------

              IN:                                      IN:
              ---                                      ---
             BOUNDARIES =      974715.3750            BOUNDARIES =           2.9940
          CONSTANT HEAD =           0.0000         CONSTANT HEAD =           0.0000
            ZONE CHANGE =    32763186.0000           ZONE CHANGE =           0.0000
       ZONE CHG TIP/TOE =    78124024.0000      ZONE CHG TIP/TOE =           0.0000
            ZONE MIXING =           0.0000           ZONE MIXING =           0.0000

               TOTAL IN =   111861920.0000              TOTAL IN =           2.9940

             OUT:                                     OUT:
             ----                                     ----
             BOUNDARIES =   151210928.0000            BOUNDARIES =       1.5712E-38
          CONSTANT HEAD =           0.0000         CONSTANT HEAD =           0.0000
            ZONE CHANGE =    84847720.0000           ZONE CHANGE =           0.0000
       ZONE CHG TIP/TOE =      294963.1250      ZONE CHG TIP/TOE =           0.0000
            ZONE MIXING =           0.0000           ZONE MIXING =           0.0000

              TOTAL OUT =   236353616.0000             TOTAL OUT =       1.5712E-38

               IN - OUT =  -124491696.0000              IN - OUT =           2.9940

    PERCENT DISCREPANCY =         -71.50     PERCENT DISCREPANCY =         200.00


 HEAD WILL BE SAVED ON UNIT   51 AT END OF TIME STEP  800, STRESS PERIOD    1
1
  VOLUMETRIC BUDGET FOR ENTIRE MODEL AT END OF TIME STEP  800, STRESS PERIOD   1
  ------------------------------------------------------------------------------

     CUMULATIVE VOLUMES      L**3       RATES FOR THIS TIME STEP      L**3/T
     ------------------                 ------------------------

           IN:                                      IN:
           ---                                      ---
             STORAGE =           0.0000               STORAGE =           0.0000
       CONSTANT HEAD =           0.0000         CONSTANT HEAD =           0.0000
          SWIADDTOCH =           0.0000            SWIADDTOCH =           0.0000
     HEAD DEP BOUNDS =          12.3444       HEAD DEP BOUNDS =       2.1070E-04
            RECHARGE =   342561280.0000              RECHARGE =        5861.7627

            TOTAL IN =   342561280.0000              TOTAL IN =        5861.7627

          OUT:                                     OUT:
          ----                                     ----
             STORAGE =           0.0000               STORAGE =           0.0000
       CONSTANT HEAD =           0.0000         CONSTANT HEAD =           0.0000
          SWIADDTOCH =           0.0000            SWIADDTOCH =           0.0000
     HEAD DEP BOUNDS =   342561280.0000       HEAD DEP BOUNDS =        5861.7627
            RECHARGE =           0.0000              RECHARGE =           0.0000

           TOTAL OUT =   342561280.0000             TOTAL OUT =        5861.7627

            IN - OUT =           0.0000              IN - OUT =           0.0000

 PERCENT DISCREPANCY =           0.00     PERCENT DISCREPANCY =           0.00






         TIME SUMMARY AT END OF TIME STEP  800 IN STRESS PERIOD    1
                    SECONDS     MINUTES      HOURS       DAYS        YEARS
                    -----------------------------------------------------------
   TIME STEP LENGTH 6.31152E+06 1.05192E+05  1753.2      73.050     0.20000    
 STRESS PERIOD TIME 5.04925E+09 8.41542E+07 1.40257E+06  58440.      160.00    
         TOTAL TIME 5.04925E+09 8.41542E+07 1.40257E+06  58440.      160.00    
1
 
 SOLVING FOR HEAD 

 NO OUTPUT CONTROL FOR STRESS PERIOD    1   TIME STEP  801
 SOLVING FOR ZETA FOR LAYER     1 ZONE     2
 INSUFFICIENT MEMORY FOR DE4 SOLVER:
 MXBW MUST BE AT LEAST  106
 
 SOLVING FOR HEAD 

 NO OUTPUT CONTROL FOR STRESS PERIOD    1   TIME STEP  802
 SOLVING FOR ZETA FOR LAYER     1 ZONE     2
 INSUFFICIENT MEMORY FOR DE4 SOLVER:
 MXBW MUST BE AT LEAST  106
 
 SOLVING FOR HEAD 

 NO OUTPUT CONTROL FOR STRESS PERIOD    1   TIME STEP  803
 SOLVING FOR ZETA FOR LAYER     1 ZONE     2
 INSUFFICIENT MEMORY FOR DE4 SOLVER:
 MXBW MUST BE AT LEAST  106
 
 SOLVING FOR HEAD 

 NO OUTPUT CONTROL FOR STRESS PERIOD    1   TIME STEP  804
 SOLVING FOR ZETA FOR LAYER     1 ZONE     2
 INSUFFICIENT MEMORY FOR DE4 SOLVER:
 MXBW MUST BE AT LEAST  106
 
 SOLVING FOR HEAD 

 NO OUTPUT CONTROL FOR STRESS PERIOD    1   TIME STEP  805
 SOLVING FOR ZETA FOR LAYER     1 ZONE     2
 INSUFFICIENT MEMORY FOR DE4 SOLVER:
 MXBW MUST BE AT LEAST  106
 
 SOLVING FOR HEAD 

 NO OUTPUT CONTROL FOR STRESS PERIOD    1   TIME STEP  806
 SOLVING FOR ZETA FOR LAYER     1 ZONE     2
 INSUFFICIENT MEMORY FOR DE4 SOLVER:
 MXBW MUST BE AT LEAST  106
 
 SOLVING FOR HEAD 

 NO OUTPUT CONTROL FOR STRESS PERIOD    1   TIME STEP  807
 SOLVING FOR ZETA FOR LAYER     1 ZONE     2
 INSUFFICIENT MEMORY FOR DE4 SOLVER:
 MXBW MUST BE AT LEAST  106
 
 SOLVING FOR HEAD 

 NO OUTPUT CONTROL FOR STRESS PERIOD    1   TIME STEP  808
 SOLVING FOR ZETA FOR LAYER     1 ZONE     2
 INSUFFICIENT MEMORY FOR DE4 SOLVER:
 MXBW MUST BE AT LEAST  106
 
 SOLVING FOR HEAD 

 NO OUTPUT CONTROL FOR STRESS PERIOD    1   TIME STEP  809
 SOLVING FOR ZETA FOR LAYER     1 ZONE     2
 INSUFFICIENT MEMORY FOR DE4 SOLVER:
 MXBW MUST BE AT LEAST  106
 
 SOLVING FOR HEAD 

 NO OUTPUT CONTROL FOR STRESS PERIOD    1   TIME STEP  810
 SOLVING FOR ZETA FOR LAYER     1 ZONE     2
 INSUFFICIENT MEMORY FOR DE4 SOLVER:
 MXBW MUST BE AT LEAST  106
 
 SOLVING FOR HEAD 

 NO OUTPUT CONTROL FOR STRESS PERIOD    1   TIME STEP  811
 SOLVING FOR ZETA FOR LAYER     1 ZONE     2
 INSUFFICIENT MEMORY FOR DE4 SOLVER:
 MXBW MUST BE AT LEAST  106
 
 SOLVING FOR HEAD 

 NO OUTPUT CONTROL FOR STRESS PERIOD    1   TIME STEP  812
 SOLVING FOR ZETA FOR LAYER     1 ZONE     2
 INSUFFICIENT MEMORY FOR DE4 SOLVER:
 MXBW MUST BE AT LEAST  106
 
 SOLVING FOR HEAD 

 NO OUTPUT CONTROL FOR STRESS PERIOD    1   TIME STEP  813
 SOLVING FOR ZETA FOR LAYER     1 ZONE     2
 INSUFFICIENT MEMORY FOR DE4 SOLVER:
 MXBW MUST BE AT LEAST  106
 
 SOLVING FOR HEAD 

 NO OUTPUT CONTROL FOR STRESS PERIOD    1   TIME STEP  814
 SOLVING FOR ZETA FOR LAYER     1 ZONE     2
 INSUFFICIENT MEMORY FOR DE4 SOLVER:
 MXBW MUST BE AT LEAST  106
 
 SOLVING FOR HEAD 

 NO OUTPUT CONTROL FOR STRESS PERIOD    1   TIME STEP  815
 SOLVING FOR ZETA FOR LAYER     1 ZONE     2
 INSUFFICIENT MEMORY FOR DE4 SOLVER:
 MXBW MUST BE AT LEAST  106
 
 SOLVING FOR HEAD 

 NO OUTPUT CONTROL FOR STRESS PERIOD    1   TIME STEP  816
 SOLVING FOR ZETA FOR LAYER     1 ZONE     2
 INSUFFICIENT MEMORY FOR DE4 SOLVER:
 MXBW MUST BE AT LEAST  106
 
 SOLVING FOR HEAD 

 NO OUTPUT CONTROL FOR STRESS PERIOD    1   TIME STEP  817
 SOLVING FOR ZETA FOR LAYER     1 ZONE     2
 INSUFFICIENT MEMORY FOR DE4 SOLVER:
 MXBW MUST BE AT LEAST  106
 
 SOLVING FOR HEAD 

 NO OUTPUT CONTROL FOR STRESS PERIOD    1   TIME STEP  818
 SOLVING FOR ZETA FOR LAYER     1 ZONE     2
 INSUFFICIENT MEMORY FOR DE4 SOLVER:
 MXBW MUST BE AT LEAST  106
 
 SOLVING FOR HEAD 

 NO OUTPUT CONTROL FOR STRESS PERIOD    1   TIME STEP  819
 SOLVING FOR ZETA FOR LAYER     1 ZONE     2
 INSUFFICIENT MEMORY FOR DE4 SOLVER:
 MXBW MUST BE AT LEAST  106
 
 SOLVING FOR HEAD 

 NO OUTPUT CONTROL FOR STRESS PERIOD    1   TIME STEP  820
 SOLVING FOR ZETA FOR LAYER     1 ZONE     2
 INSUFFICIENT MEMORY FOR DE4 SOLVER:
 MXBW MUST BE AT LEAST  106
 
 SOLVING FOR HEAD 

 NO OUTPUT CONTROL FOR STRESS PERIOD    1   TIME STEP  821
 SOLVING FOR ZETA FOR LAYER     1 ZONE     2
 INSUFFICIENT MEMORY FOR DE4 SOLVER:
 MXBW MUST BE AT LEAST  106
 
 SOLVING FOR HEAD 

 NO OUTPUT CONTROL FOR STRESS PERIOD    1   TIME STEP  822
 SOLVING FOR ZETA FOR LAYER     1 ZONE     2
 INSUFFICIENT MEMORY FOR DE4 SOLVER:
 MXBW MUST BE AT LEAST  106
 
 SOLVING FOR HEAD 

 NO OUTPUT CONTROL FOR STRESS PERIOD    1   TIME STEP  823
 SOLVING FOR ZETA FOR LAYER     1 ZONE     2
 INSUFFICIENT MEMORY FOR DE4 SOLVER:
 MXBW MUST BE AT LEAST  106
 
 SOLVING FOR HEAD 

 NO OUTPUT CONTROL FOR STRESS PERIOD    1   TIME STEP  824
 SOLVING FOR ZETA FOR LAYER     1 ZONE     2
 INSUFFICIENT MEMORY FOR DE4 SOLVER:
 MXBW MUST BE AT LEAST  106
 
 SOLVING FOR HEAD 

 NO OUTPUT CONTROL FOR STRESS PERIOD    1   TIME STEP  825
 SOLVING FOR ZETA FOR LAYER     1 ZONE     2
 INSUFFICIENT MEMORY FOR DE4 SOLVER:
 MXBW MUST BE AT LEAST  106
 
 SOLVING FOR HEAD 

 NO OUTPUT CONTROL FOR STRESS PERIOD    1   TIME STEP  826
 SOLVING FOR ZETA FOR LAYER     1 ZONE     2
 INSUFFICIENT MEMORY FOR DE4 SOLVER:
 MXBW MUST BE AT LEAST  106
 
 SOLVING FOR HEAD 

 NO OUTPUT CONTROL FOR STRESS PERIOD    1   TIME STEP  827
 SOLVING FOR ZETA FOR LAYER     1 ZONE     2
 INSUFFICIENT MEMORY FOR DE4 SOLVER:
 MXBW MUST BE AT LEAST  106
 
 SOLVING FOR HEAD 

 NO OUTPUT CONTROL FOR STRESS PERIOD    1   TIME STEP  828
 SOLVING FOR ZETA FOR LAYER     1 ZONE     2
 INSUFFICIENT MEMORY FOR DE4 SOLVER:
 MXBW MUST BE AT LEAST  106
 
 SOLVING FOR HEAD 

 NO OUTPUT CONTROL FOR STRESS PERIOD    1   TIME STEP  829
 SOLVING FOR ZETA FOR LAYER     1 ZONE     2
 INSUFFICIENT MEMORY FOR DE4 SOLVER:
 MXBW MUST BE AT LEAST  106
 
 SOLVING FOR HEAD 

 NO OUTPUT CONTROL FOR STRESS PERIOD    1   TIME STEP  830
 SOLVING FOR ZETA FOR LAYER     1 ZONE     2
 INSUFFICIENT MEMORY FOR DE4 SOLVER:
 MXBW MUST BE AT LEAST  106
 
 SOLVING FOR HEAD 

 NO OUTPUT CONTROL FOR STRESS PERIOD    1   TIME STEP  831
 SOLVING FOR ZETA FOR LAYER     1 ZONE     2
 INSUFFICIENT MEMORY FOR DE4 SOLVER:
 MXBW MUST BE AT LEAST  106
 
 SOLVING FOR HEAD 

 NO OUTPUT CONTROL FOR STRESS PERIOD    1   TIME STEP  832
 SOLVING FOR ZETA FOR LAYER     1 ZONE     2
 INSUFFICIENT MEMORY FOR DE4 SOLVER:
 MXBW MUST BE AT LEAST  106
 
 SOLVING FOR HEAD 

 NO OUTPUT CONTROL FOR STRESS PERIOD    1   TIME STEP  833
 SOLVING FOR ZETA FOR LAYER     1 ZONE     2
 INSUFFICIENT MEMORY FOR DE4 SOLVER:
 MXBW MUST BE AT LEAST  106
 
 SOLVING FOR HEAD 

 NO OUTPUT CONTROL FOR STRESS PERIOD    1   TIME STEP  834
 SOLVING FOR ZETA FOR LAYER     1 ZONE     2
 INSUFFICIENT MEMORY FOR DE4 SOLVER:
 MXBW MUST BE AT LEAST  106
 
 SOLVING FOR HEAD 

 NO OUTPUT CONTROL FOR STRESS PERIOD    1   TIME STEP  835
 SOLVING FOR ZETA FOR LAYER     1 ZONE     2
 INSUFFICIENT MEMORY FOR DE4 SOLVER:
 MXBW MUST BE AT LEAST  106
 
 SOLVING FOR HEAD 

 NO OUTPUT CONTROL FOR STRESS PERIOD    1   TIME STEP  836
 SOLVING FOR ZETA FOR LAYER     1 ZONE     2
 INSUFFICIENT MEMORY FOR DE4 SOLVER:
 MXBW MUST BE AT LEAST  106
 
 SOLVING FOR HEAD 

 NO OUTPUT CONTROL FOR STRESS PERIOD    1   TIME STEP  837
 SOLVING FOR ZETA FOR LAYER     1 ZONE     2
 INSUFFICIENT MEMORY FOR DE4 SOLVER:
 MXBW MUST BE AT LEAST  106
 
 SOLVING FOR HEAD 

 NO OUTPUT CONTROL FOR STRESS PERIOD    1   TIME STEP  838
 SOLVING FOR ZETA FOR LAYER     1 ZONE     2
 INSUFFICIENT MEMORY FOR DE4 SOLVER:
 MXBW MUST BE AT LEAST  106
 
 SOLVING FOR HEAD 

 NO OUTPUT CONTROL FOR STRESS PERIOD    1   TIME STEP  839
 SOLVING FOR ZETA FOR LAYER     1 ZONE     2
 INSUFFICIENT MEMORY FOR DE4 SOLVER:
 MXBW MUST BE AT LEAST  106
 
 SOLVING FOR HEAD 

 NO OUTPUT CONTROL FOR STRESS PERIOD    1   TIME STEP  840
 SOLVING FOR ZETA FOR LAYER     1 ZONE     2
 INSUFFICIENT MEMORY FOR DE4 SOLVER:
 MXBW MUST BE AT LEAST  106
 
 SOLVING FOR HEAD 

 NO OUTPUT CONTROL FOR STRESS PERIOD    1   TIME STEP  841
 SOLVING FOR ZETA FOR LAYER     1 ZONE     2
 INSUFFICIENT MEMORY FOR DE4 SOLVER:
 MXBW MUST BE AT LEAST  106
 
 SOLVING FOR HEAD 

 NO OUTPUT CONTROL FOR STRESS PERIOD    1   TIME STEP  842
 SOLVING FOR ZETA FOR LAYER     1 ZONE     2
 INSUFFICIENT MEMORY FOR DE4 SOLVER:
 MXBW MUST BE AT LEAST  106
 
 SOLVING FOR HEAD 

 NO OUTPUT CONTROL FOR STRESS PERIOD    1   TIME STEP  843
 SOLVING FOR ZETA FOR LAYER     1 ZONE     2
 INSUFFICIENT MEMORY FOR DE4 SOLVER:
 MXBW MUST BE AT LEAST  106
 
 SOLVING FOR HEAD 

 NO OUTPUT CONTROL FOR STRESS PERIOD    1   TIME STEP  844
 SOLVING FOR ZETA FOR LAYER     1 ZONE     2
 INSUFFICIENT MEMORY FOR DE4 SOLVER:
 MXBW MUST BE AT LEAST  106
 
 SOLVING FOR HEAD 

 NO OUTPUT CONTROL FOR STRESS PERIOD    1   TIME STEP  845
 SOLVING FOR ZETA FOR LAYER     1 ZONE     2
 INSUFFICIENT MEMORY FOR DE4 SOLVER:
 MXBW MUST BE AT LEAST  106
 
 SOLVING FOR HEAD 

 NO OUTPUT CONTROL FOR STRESS PERIOD    1   TIME STEP  846
 SOLVING FOR ZETA FOR LAYER     1 ZONE     2
 INSUFFICIENT MEMORY FOR DE4 SOLVER:
 MXBW MUST BE AT LEAST  106
 
 SOLVING FOR HEAD 

 NO OUTPUT CONTROL FOR STRESS PERIOD    1   TIME STEP  847
 SOLVING FOR ZETA FOR LAYER     1 ZONE     2
 INSUFFICIENT MEMORY FOR DE4 SOLVER:
 MXBW MUST BE AT LEAST  106
 
 SOLVING FOR HEAD 

 NO OUTPUT CONTROL FOR STRESS PERIOD    1   TIME STEP  848
 SOLVING FOR ZETA FOR LAYER     1 ZONE     2
 INSUFFICIENT MEMORY FOR DE4 SOLVER:
 MXBW MUST BE AT LEAST  106
 
 SOLVING FOR HEAD 

 NO OUTPUT CONTROL FOR STRESS PERIOD    1   TIME STEP  849
 SOLVING FOR ZETA FOR LAYER     1 ZONE     2
 INSUFFICIENT MEMORY FOR DE4 SOLVER:
 MXBW MUST BE AT LEAST  106
 
 SOLVING FOR HEAD 

 NO OUTPUT CONTROL FOR STRESS PERIOD    1   TIME STEP  850
 SOLVING FOR ZETA FOR LAYER     1 ZONE     2
 INSUFFICIENT MEMORY FOR DE4 SOLVER:
 MXBW MUST BE AT LEAST  106
 
 SOLVING FOR HEAD 

 NO OUTPUT CONTROL FOR STRESS PERIOD    1   TIME STEP  851
 SOLVING FOR ZETA FOR LAYER     1 ZONE     2
 INSUFFICIENT MEMORY FOR DE4 SOLVER:
 MXBW MUST BE AT LEAST  106
 
 SOLVING FOR HEAD 

 NO OUTPUT CONTROL FOR STRESS PERIOD    1   TIME STEP  852
 SOLVING FOR ZETA FOR LAYER     1 ZONE     2
 INSUFFICIENT MEMORY FOR DE4 SOLVER:
 MXBW MUST BE AT LEAST  106
 
 SOLVING FOR HEAD 

 NO OUTPUT CONTROL FOR STRESS PERIOD    1   TIME STEP  853
 SOLVING FOR ZETA FOR LAYER     1 ZONE     2
 INSUFFICIENT MEMORY FOR DE4 SOLVER:
 MXBW MUST BE AT LEAST  106
 
 SOLVING FOR HEAD 

 NO OUTPUT CONTROL FOR STRESS PERIOD    1   TIME STEP  854
 SOLVING FOR ZETA FOR LAYER     1 ZONE     2
 INSUFFICIENT MEMORY FOR DE4 SOLVER:
 MXBW MUST BE AT LEAST  106
 
 SOLVING FOR HEAD 

 NO OUTPUT CONTROL FOR STRESS PERIOD    1   TIME STEP  855
 SOLVING FOR ZETA FOR LAYER     1 ZONE     2
 INSUFFICIENT MEMORY FOR DE4 SOLVER:
 MXBW MUST BE AT LEAST  106
 
 SOLVING FOR HEAD 

 NO OUTPUT CONTROL FOR STRESS PERIOD    1   TIME STEP  856
 SOLVING FOR ZETA FOR LAYER     1 ZONE     2
 INSUFFICIENT MEMORY FOR DE4 SOLVER:
 MXBW MUST BE AT LEAST  106
 
 SOLVING FOR HEAD 

 NO OUTPUT CONTROL FOR STRESS PERIOD    1   TIME STEP  857
 SOLVING FOR ZETA FOR LAYER     1 ZONE     2
 INSUFFICIENT MEMORY FOR DE4 SOLVER:
 MXBW MUST BE AT LEAST  106
 
 SOLVING FOR HEAD 

 NO OUTPUT CONTROL FOR STRESS PERIOD    1   TIME STEP  858
 SOLVING FOR ZETA FOR LAYER     1 ZONE     2
 INSUFFICIENT MEMORY FOR DE4 SOLVER:
 MXBW MUST BE AT LEAST  106
 
 SOLVING FOR HEAD 

 NO OUTPUT CONTROL FOR STRESS PERIOD    1   TIME STEP  859
 SOLVING FOR ZETA FOR LAYER     1 ZONE     2
 INSUFFICIENT MEMORY FOR DE4 SOLVER:
 MXBW MUST BE AT LEAST  106
 
 SOLVING FOR HEAD 

 NO OUTPUT CONTROL FOR STRESS PERIOD    1   TIME STEP  860
 SOLVING FOR ZETA FOR LAYER     1 ZONE     2
 INSUFFICIENT MEMORY FOR DE4 SOLVER:
 MXBW MUST BE AT LEAST  106
 
 SOLVING FOR HEAD 

 NO OUTPUT CONTROL FOR STRESS PERIOD    1   TIME STEP  861
 SOLVING FOR ZETA FOR LAYER     1 ZONE     2
 INSUFFICIENT MEMORY FOR DE4 SOLVER:
 MXBW MUST BE AT LEAST  106
 
 SOLVING FOR HEAD 

 NO OUTPUT CONTROL FOR STRESS PERIOD    1   TIME STEP  862
 SOLVING FOR ZETA FOR LAYER     1 ZONE     2
 INSUFFICIENT MEMORY FOR DE4 SOLVER:
 MXBW MUST BE AT LEAST  106
 
 SOLVING FOR HEAD 

 NO OUTPUT CONTROL FOR STRESS PERIOD    1   TIME STEP  863
 SOLVING FOR ZETA FOR LAYER     1 ZONE     2
 INSUFFICIENT MEMORY FOR DE4 SOLVER:
 MXBW MUST BE AT LEAST  106
 
 SOLVING FOR HEAD 

 NO OUTPUT CONTROL FOR STRESS PERIOD    1   TIME STEP  864
 SOLVING FOR ZETA FOR LAYER     1 ZONE     2
 INSUFFICIENT MEMORY FOR DE4 SOLVER:
 MXBW MUST BE AT LEAST  106
 
 SOLVING FOR HEAD 

 NO OUTPUT CONTROL FOR STRESS PERIOD    1   TIME STEP  865
 SOLVING FOR ZETA FOR LAYER     1 ZONE     2
 INSUFFICIENT MEMORY FOR DE4 SOLVER:
 MXBW MUST BE AT LEAST  106
 
 SOLVING FOR HEAD 

 NO OUTPUT CONTROL FOR STRESS PERIOD    1   TIME STEP  866
 SOLVING FOR ZETA FOR LAYER     1 ZONE     2
 INSUFFICIENT MEMORY FOR DE4 SOLVER:
 MXBW MUST BE AT LEAST  106
 
 SOLVING FOR HEAD 

 NO OUTPUT CONTROL FOR STRESS PERIOD    1   TIME STEP  867
 SOLVING FOR ZETA FOR LAYER     1 ZONE     2
 INSUFFICIENT MEMORY FOR DE4 SOLVER:
 MXBW MUST BE AT LEAST  106
 
 SOLVING FOR HEAD 

 NO OUTPUT CONTROL FOR STRESS PERIOD    1   TIME STEP  868
 SOLVING FOR ZETA FOR LAYER     1 ZONE     2
 INSUFFICIENT MEMORY FOR DE4 SOLVER:
 MXBW MUST BE AT LEAST  106
 
 SOLVING FOR HEAD 

 NO OUTPUT CONTROL FOR STRESS PERIOD    1   TIME STEP  869
 SOLVING FOR ZETA FOR LAYER     1 ZONE     2
 INSUFFICIENT MEMORY FOR DE4 SOLVER:
 MXBW MUST BE AT LEAST  106
 
 SOLVING FOR HEAD 

 NO OUTPUT CONTROL FOR STRESS PERIOD    1   TIME STEP  870
 SOLVING FOR ZETA FOR LAYER     1 ZONE     2
 INSUFFICIENT MEMORY FOR DE4 SOLVER:
 MXBW MUST BE AT LEAST  106
 
 SOLVING FOR HEAD 

 NO OUTPUT CONTROL FOR STRESS PERIOD    1   TIME STEP  871
 SOLVING FOR ZETA FOR LAYER     1 ZONE     2
 INSUFFICIENT MEMORY FOR DE4 SOLVER:
 MXBW MUST BE AT LEAST  106
 
 SOLVING FOR HEAD 

 NO OUTPUT CONTROL FOR STRESS PERIOD    1   TIME STEP  872
 SOLVING FOR ZETA FOR LAYER     1 ZONE     2
 INSUFFICIENT MEMORY FOR DE4 SOLVER:
 MXBW MUST BE AT LEAST  106
 
 SOLVING FOR HEAD 

 NO OUTPUT CONTROL FOR STRESS PERIOD    1   TIME STEP  873
 SOLVING FOR ZETA FOR LAYER     1 ZONE     2
 INSUFFICIENT MEMORY FOR DE4 SOLVER:
 MXBW MUST BE AT LEAST  106
 
 SOLVING FOR HEAD 

 NO OUTPUT CONTROL FOR STRESS PERIOD    1   TIME STEP  874
 SOLVING FOR ZETA FOR LAYER     1 ZONE     2
 INSUFFICIENT MEMORY FOR DE4 SOLVER:
 MXBW MUST BE AT LEAST  106
 
 SOLVING FOR HEAD 

 NO OUTPUT CONTROL FOR STRESS PERIOD    1   TIME STEP  875
 SOLVING FOR ZETA FOR LAYER     1 ZONE     2
 INSUFFICIENT MEMORY FOR DE4 SOLVER:
 MXBW MUST BE AT LEAST  106
 
 SOLVING FOR HEAD 

 NO OUTPUT CONTROL FOR STRESS PERIOD    1   TIME STEP  876
 SOLVING FOR ZETA FOR LAYER     1 ZONE     2
 INSUFFICIENT MEMORY FOR DE4 SOLVER:
 MXBW MUST BE AT LEAST  106
 
 SOLVING FOR HEAD 

 NO OUTPUT CONTROL FOR STRESS PERIOD    1   TIME STEP  877
 SOLVING FOR ZETA FOR LAYER     1 ZONE     2
 INSUFFICIENT MEMORY FOR DE4 SOLVER:
 MXBW MUST BE AT LEAST  106
 
 SOLVING FOR HEAD 

 NO OUTPUT CONTROL FOR STRESS PERIOD    1   TIME STEP  878
 SOLVING FOR ZETA FOR LAYER     1 ZONE     2
 INSUFFICIENT MEMORY FOR DE4 SOLVER:
 MXBW MUST BE AT LEAST  106
 
 SOLVING FOR HEAD 

 NO OUTPUT CONTROL FOR STRESS PERIOD    1   TIME STEP  879
 SOLVING FOR ZETA FOR LAYER     1 ZONE     2
 INSUFFICIENT MEMORY FOR DE4 SOLVER:
 MXBW MUST BE AT LEAST  106
 
 SOLVING FOR HEAD 

 NO OUTPUT CONTROL FOR STRESS PERIOD    1   TIME STEP  880
 SOLVING FOR ZETA FOR LAYER     1 ZONE     2
 INSUFFICIENT MEMORY FOR DE4 SOLVER:
 MXBW MUST BE AT LEAST  106
 
 SOLVING FOR HEAD 

 NO OUTPUT CONTROL FOR STRESS PERIOD    1   TIME STEP  881
 SOLVING FOR ZETA FOR LAYER     1 ZONE     2
 INSUFFICIENT MEMORY FOR DE4 SOLVER:
 MXBW MUST BE AT LEAST  106
 
 SOLVING FOR HEAD 

 NO OUTPUT CONTROL FOR STRESS PERIOD    1   TIME STEP  882
 SOLVING FOR ZETA FOR LAYER     1 ZONE     2
 INSUFFICIENT MEMORY FOR DE4 SOLVER:
 MXBW MUST BE AT LEAST  106
 
 SOLVING FOR HEAD 

 NO OUTPUT CONTROL FOR STRESS PERIOD    1   TIME STEP  883
 SOLVING FOR ZETA FOR LAYER     1 ZONE     2
 INSUFFICIENT MEMORY FOR DE4 SOLVER:
 MXBW MUST BE AT LEAST  106
 
 SOLVING FOR HEAD 

 NO OUTPUT CONTROL FOR STRESS PERIOD    1   TIME STEP  884
 SOLVING FOR ZETA FOR LAYER     1 ZONE     2
 INSUFFICIENT MEMORY FOR DE4 SOLVER:
 MXBW MUST BE AT LEAST  106
 
 SOLVING FOR HEAD 

 NO OUTPUT CONTROL FOR STRESS PERIOD    1   TIME STEP  885
 SOLVING FOR ZETA FOR LAYER     1 ZONE     2
 INSUFFICIENT MEMORY FOR DE4 SOLVER:
 MXBW MUST BE AT LEAST  106
 
 SOLVING FOR HEAD 

 NO OUTPUT CONTROL FOR STRESS PERIOD    1   TIME STEP  886
 SOLVING FOR ZETA FOR LAYER     1 ZONE     2
 INSUFFICIENT MEMORY FOR DE4 SOLVER:
 MXBW MUST BE AT LEAST  106
 
 SOLVING FOR HEAD 

 NO OUTPUT CONTROL FOR STRESS PERIOD    1   TIME STEP  887
 SOLVING FOR ZETA FOR LAYER     1 ZONE     2
 INSUFFICIENT MEMORY FOR DE4 SOLVER:
 MXBW MUST BE AT LEAST  106
 
 SOLVING FOR HEAD 

 NO OUTPUT CONTROL FOR STRESS PERIOD    1   TIME STEP  888
 SOLVING FOR ZETA FOR LAYER     1 ZONE     2
 INSUFFICIENT MEMORY FOR DE4 SOLVER:
 MXBW MUST BE AT LEAST  106
 
 SOLVING FOR HEAD 

 NO OUTPUT CONTROL FOR STRESS PERIOD    1   TIME STEP  889
 SOLVING FOR ZETA FOR LAYER     1 ZONE     2
 INSUFFICIENT MEMORY FOR DE4 SOLVER:
 MXBW MUST BE AT LEAST  106
 
 SOLVING FOR HEAD 

 NO OUTPUT CONTROL FOR STRESS PERIOD    1   TIME STEP  890
 SOLVING FOR ZETA FOR LAYER     1 ZONE     2
 INSUFFICIENT MEMORY FOR DE4 SOLVER:
 MXBW MUST BE AT LEAST  106
 
 SOLVING FOR HEAD 

 NO OUTPUT CONTROL FOR STRESS PERIOD    1   TIME STEP  891
 SOLVING FOR ZETA FOR LAYER     1 ZONE     2
 INSUFFICIENT MEMORY FOR DE4 SOLVER:
 MXBW MUST BE AT LEAST  106
 
 SOLVING FOR HEAD 

 NO OUTPUT CONTROL FOR STRESS PERIOD    1   TIME STEP  892
 SOLVING FOR ZETA FOR LAYER     1 ZONE     2
 INSUFFICIENT MEMORY FOR DE4 SOLVER:
 MXBW MUST BE AT LEAST  106
 
 SOLVING FOR HEAD 

 NO OUTPUT CONTROL FOR STRESS PERIOD    1   TIME STEP  893
 SOLVING FOR ZETA FOR LAYER     1 ZONE     2
 INSUFFICIENT MEMORY FOR DE4 SOLVER:
 MXBW MUST BE AT LEAST  106
 
 SOLVING FOR HEAD 

 NO OUTPUT CONTROL FOR STRESS PERIOD    1   TIME STEP  894
 SOLVING FOR ZETA FOR LAYER     1 ZONE     2
 INSUFFICIENT MEMORY FOR DE4 SOLVER:
 MXBW MUST BE AT LEAST  106
 
 SOLVING FOR HEAD 

 NO OUTPUT CONTROL FOR STRESS PERIOD    1   TIME STEP  895
 SOLVING FOR ZETA FOR LAYER     1 ZONE     2
 INSUFFICIENT MEMORY FOR DE4 SOLVER:
 MXBW MUST BE AT LEAST  106
 
 SOLVING FOR HEAD 

 NO OUTPUT CONTROL FOR STRESS PERIOD    1   TIME STEP  896
 SOLVING FOR ZETA FOR LAYER     1 ZONE     2
 INSUFFICIENT MEMORY FOR DE4 SOLVER:
 MXBW MUST BE AT LEAST  106
 
 SOLVING FOR HEAD 

 NO OUTPUT CONTROL FOR STRESS PERIOD    1   TIME STEP  897
 SOLVING FOR ZETA FOR LAYER     1 ZONE     2
 INSUFFICIENT MEMORY FOR DE4 SOLVER:
 MXBW MUST BE AT LEAST  106
 
 SOLVING FOR HEAD 

 NO OUTPUT CONTROL FOR STRESS PERIOD    1   TIME STEP  898
 SOLVING FOR ZETA FOR LAYER     1 ZONE     2
 INSUFFICIENT MEMORY FOR DE4 SOLVER:
 MXBW MUST BE AT LEAST  106
 
 SOLVING FOR HEAD 

 NO OUTPUT CONTROL FOR STRESS PERIOD    1   TIME STEP  899
 SOLVING FOR ZETA FOR LAYER     1 ZONE     2
 INSUFFICIENT MEMORY FOR DE4 SOLVER:
 MXBW MUST BE AT LEAST  106
 
 SOLVING FOR HEAD 

 NO OUTPUT CONTROL FOR STRESS PERIOD    1   TIME STEP  900
 SOLVING FOR ZETA FOR LAYER     1 ZONE     2
 INSUFFICIENT MEMORY FOR DE4 SOLVER:
 MXBW MUST BE AT LEAST  106
 
 SOLVING FOR HEAD 

 NO OUTPUT CONTROL FOR STRESS PERIOD    1   TIME STEP  901
 SOLVING FOR ZETA FOR LAYER     1 ZONE     2
 INSUFFICIENT MEMORY FOR DE4 SOLVER:
 MXBW MUST BE AT LEAST  106
 
 SOLVING FOR HEAD 

 NO OUTPUT CONTROL FOR STRESS PERIOD    1   TIME STEP  902
 SOLVING FOR ZETA FOR LAYER     1 ZONE     2
 INSUFFICIENT MEMORY FOR DE4 SOLVER:
 MXBW MUST BE AT LEAST  106
 
 SOLVING FOR HEAD 

 NO OUTPUT CONTROL FOR STRESS PERIOD    1   TIME STEP  903
 SOLVING FOR ZETA FOR LAYER     1 ZONE     2
 INSUFFICIENT MEMORY FOR DE4 SOLVER:
 MXBW MUST BE AT LEAST  106
 
 SOLVING FOR HEAD 

 NO OUTPUT CONTROL FOR STRESS PERIOD    1   TIME STEP  904
 SOLVING FOR ZETA FOR LAYER     1 ZONE     2
 INSUFFICIENT MEMORY FOR DE4 SOLVER:
 MXBW MUST BE AT LEAST  106
 
 SOLVING FOR HEAD 

 NO OUTPUT CONTROL FOR STRESS PERIOD    1   TIME STEP  905
 SOLVING FOR ZETA FOR LAYER     1 ZONE     2
 INSUFFICIENT MEMORY FOR DE4 SOLVER:
 MXBW MUST BE AT LEAST  106
 
 SOLVING FOR HEAD 

 NO OUTPUT CONTROL FOR STRESS PERIOD    1   TIME STEP  906
 SOLVING FOR ZETA FOR LAYER     1 ZONE     2
 INSUFFICIENT MEMORY FOR DE4 SOLVER:
 MXBW MUST BE AT LEAST  106
 
 SOLVING FOR HEAD 

 NO OUTPUT CONTROL FOR STRESS PERIOD    1   TIME STEP  907
 SOLVING FOR ZETA FOR LAYER     1 ZONE     2
 INSUFFICIENT MEMORY FOR DE4 SOLVER:
 MXBW MUST BE AT LEAST  106
 
 SOLVING FOR HEAD 

 NO OUTPUT CONTROL FOR STRESS PERIOD    1   TIME STEP  908
 SOLVING FOR ZETA FOR LAYER     1 ZONE     2
 INSUFFICIENT MEMORY FOR DE4 SOLVER:
 MXBW MUST BE AT LEAST  106
 
 SOLVING FOR HEAD 

 NO OUTPUT CONTROL FOR STRESS PERIOD    1   TIME STEP  909
 SOLVING FOR ZETA FOR LAYER     1 ZONE     2
 INSUFFICIENT MEMORY FOR DE4 SOLVER:
 MXBW MUST BE AT LEAST  106
 
 SOLVING FOR HEAD 

 NO OUTPUT CONTROL FOR STRESS PERIOD    1   TIME STEP  910
 SOLVING FOR ZETA FOR LAYER     1 ZONE     2
 INSUFFICIENT MEMORY FOR DE4 SOLVER:
 MXBW MUST BE AT LEAST  106
 
 SOLVING FOR HEAD 

 NO OUTPUT CONTROL FOR STRESS PERIOD    1   TIME STEP  911
 SOLVING FOR ZETA FOR LAYER     1 ZONE     2
 INSUFFICIENT MEMORY FOR DE4 SOLVER:
 MXBW MUST BE AT LEAST  106
 
 SOLVING FOR HEAD 

 NO OUTPUT CONTROL FOR STRESS PERIOD    1   TIME STEP  912
 SOLVING FOR ZETA FOR LAYER     1 ZONE     2
 INSUFFICIENT MEMORY FOR DE4 SOLVER:
 MXBW MUST BE AT LEAST  106
 
 SOLVING FOR HEAD 

 NO OUTPUT CONTROL FOR STRESS PERIOD    1   TIME STEP  913
 SOLVING FOR ZETA FOR LAYER     1 ZONE     2
 INSUFFICIENT MEMORY FOR DE4 SOLVER:
 MXBW MUST BE AT LEAST  106
 
 SOLVING FOR HEAD 

 NO OUTPUT CONTROL FOR STRESS PERIOD    1   TIME STEP  914
 SOLVING FOR ZETA FOR LAYER     1 ZONE     2
 INSUFFICIENT MEMORY FOR DE4 SOLVER:
 MXBW MUST BE AT LEAST  106
 
 SOLVING FOR HEAD 

 NO OUTPUT CONTROL FOR STRESS PERIOD    1   TIME STEP  915
 SOLVING FOR ZETA FOR LAYER     1 ZONE     2
 INSUFFICIENT MEMORY FOR DE4 SOLVER:
 MXBW MUST BE AT LEAST  106
 
 SOLVING FOR HEAD 

 NO OUTPUT CONTROL FOR STRESS PERIOD    1   TIME STEP  916
 SOLVING FOR ZETA FOR LAYER     1 ZONE     2
 INSUFFICIENT MEMORY FOR DE4 SOLVER:
 MXBW MUST BE AT LEAST  106
 
 SOLVING FOR HEAD 

 NO OUTPUT CONTROL FOR STRESS PERIOD    1   TIME STEP  917
 SOLVING FOR ZETA FOR LAYER     1 ZONE     2
 INSUFFICIENT MEMORY FOR DE4 SOLVER:
 MXBW MUST BE AT LEAST  106
 
 SOLVING FOR HEAD 

 NO OUTPUT CONTROL FOR STRESS PERIOD    1   TIME STEP  918
 SOLVING FOR ZETA FOR LAYER     1 ZONE     2
 INSUFFICIENT MEMORY FOR DE4 SOLVER:
 MXBW MUST BE AT LEAST  106
 
 SOLVING FOR HEAD 

 NO OUTPUT CONTROL FOR STRESS PERIOD    1   TIME STEP  919
 SOLVING FOR ZETA FOR LAYER     1 ZONE     2
 INSUFFICIENT MEMORY FOR DE4 SOLVER:
 MXBW MUST BE AT LEAST  106
 
 SOLVING FOR HEAD 

 NO OUTPUT CONTROL FOR STRESS PERIOD    1   TIME STEP  920
 SOLVING FOR ZETA FOR LAYER     1 ZONE     2
 INSUFFICIENT MEMORY FOR DE4 SOLVER:
 MXBW MUST BE AT LEAST  106
 
 SOLVING FOR HEAD 

 NO OUTPUT CONTROL FOR STRESS PERIOD    1   TIME STEP  921
 SOLVING FOR ZETA FOR LAYER     1 ZONE     2
 INSUFFICIENT MEMORY FOR DE4 SOLVER:
 MXBW MUST BE AT LEAST  106
 
 SOLVING FOR HEAD 

 NO OUTPUT CONTROL FOR STRESS PERIOD    1   TIME STEP  922
 SOLVING FOR ZETA FOR LAYER     1 ZONE     2
 INSUFFICIENT MEMORY FOR DE4 SOLVER:
 MXBW MUST BE AT LEAST  106
 
 SOLVING FOR HEAD 

 NO OUTPUT CONTROL FOR STRESS PERIOD    1   TIME STEP  923
 SOLVING FOR ZETA FOR LAYER     1 ZONE     2
 INSUFFICIENT MEMORY FOR DE4 SOLVER:
 MXBW MUST BE AT LEAST  106
 
 SOLVING FOR HEAD 

 NO OUTPUT CONTROL FOR STRESS PERIOD    1   TIME STEP  924
 SOLVING FOR ZETA FOR LAYER     1 ZONE     2
 INSUFFICIENT MEMORY FOR DE4 SOLVER:
 MXBW MUST BE AT LEAST  106
 
 SOLVING FOR HEAD 

 NO OUTPUT CONTROL FOR STRESS PERIOD    1   TIME STEP  925
 SOLVING FOR ZETA FOR LAYER     1 ZONE     2
 INSUFFICIENT MEMORY FOR DE4 SOLVER:
 MXBW MUST BE AT LEAST  106
 
 SOLVING FOR HEAD 

 NO OUTPUT CONTROL FOR STRESS PERIOD    1   TIME STEP  926
 SOLVING FOR ZETA FOR LAYER     1 ZONE     2
 INSUFFICIENT MEMORY FOR DE4 SOLVER:
 MXBW MUST BE AT LEAST  106
 
 SOLVING FOR HEAD 

 NO OUTPUT CONTROL FOR STRESS PERIOD    1   TIME STEP  927
 SOLVING FOR ZETA FOR LAYER     1 ZONE     2
 INSUFFICIENT MEMORY FOR DE4 SOLVER:
 MXBW MUST BE AT LEAST  106
 
 SOLVING FOR HEAD 

 NO OUTPUT CONTROL FOR STRESS PERIOD    1   TIME STEP  928
 SOLVING FOR ZETA FOR LAYER     1 ZONE     2
 INSUFFICIENT MEMORY FOR DE4 SOLVER:
 MXBW MUST BE AT LEAST  106
 
 SOLVING FOR HEAD 

 NO OUTPUT CONTROL FOR STRESS PERIOD    1   TIME STEP  929
 SOLVING FOR ZETA FOR LAYER     1 ZONE     2
 INSUFFICIENT MEMORY FOR DE4 SOLVER:
 MXBW MUST BE AT LEAST  106
 
 SOLVING FOR HEAD 

 NO OUTPUT CONTROL FOR STRESS PERIOD    1   TIME STEP  930
 SOLVING FOR ZETA FOR LAYER     1 ZONE     2
 INSUFFICIENT MEMORY FOR DE4 SOLVER:
 MXBW MUST BE AT LEAST  106
 
 SOLVING FOR HEAD 

 NO OUTPUT CONTROL FOR STRESS PERIOD    1   TIME STEP  931
 SOLVING FOR ZETA FOR LAYER     1 ZONE     2
 INSUFFICIENT MEMORY FOR DE4 SOLVER:
 MXBW MUST BE AT LEAST  106
 
 SOLVING FOR HEAD 

 NO OUTPUT CONTROL FOR STRESS PERIOD    1   TIME STEP  932
 SOLVING FOR ZETA FOR LAYER     1 ZONE     2
 INSUFFICIENT MEMORY FOR DE4 SOLVER:
 MXBW MUST BE AT LEAST  106
 
 SOLVING FOR HEAD 

 NO OUTPUT CONTROL FOR STRESS PERIOD    1   TIME STEP  933
 SOLVING FOR ZETA FOR LAYER     1 ZONE     2
 INSUFFICIENT MEMORY FOR DE4 SOLVER:
 MXBW MUST BE AT LEAST  106
 
 SOLVING FOR HEAD 

 NO OUTPUT CONTROL FOR STRESS PERIOD    1   TIME STEP  934
 SOLVING FOR ZETA FOR LAYER     1 ZONE     2
 INSUFFICIENT MEMORY FOR DE4 SOLVER:
 MXBW MUST BE AT LEAST  106
 
 SOLVING FOR HEAD 

 NO OUTPUT CONTROL FOR STRESS PERIOD    1   TIME STEP  935
 SOLVING FOR ZETA FOR LAYER     1 ZONE     2
 INSUFFICIENT MEMORY FOR DE4 SOLVER:
 MXBW MUST BE AT LEAST  106
 
 SOLVING FOR HEAD 

 NO OUTPUT CONTROL FOR STRESS PERIOD    1   TIME STEP  936
 SOLVING FOR ZETA FOR LAYER     1 ZONE     2
 INSUFFICIENT MEMORY FOR DE4 SOLVER:
 MXBW MUST BE AT LEAST  106
 
 SOLVING FOR HEAD 

 NO OUTPUT CONTROL FOR STRESS PERIOD    1   TIME STEP  937
 SOLVING FOR ZETA FOR LAYER     1 ZONE     2
 INSUFFICIENT MEMORY FOR DE4 SOLVER:
 MXBW MUST BE AT LEAST  106
 
 SOLVING FOR HEAD 

 NO OUTPUT CONTROL FOR STRESS PERIOD    1   TIME STEP  938
 SOLVING FOR ZETA FOR LAYER     1 ZONE     2
 INSUFFICIENT MEMORY FOR DE4 SOLVER:
 MXBW MUST BE AT LEAST  106
 
 SOLVING FOR HEAD 

 NO OUTPUT CONTROL FOR STRESS PERIOD    1   TIME STEP  939
 SOLVING FOR ZETA FOR LAYER     1 ZONE     2
 INSUFFICIENT MEMORY FOR DE4 SOLVER:
 MXBW MUST BE AT LEAST  106
 
 SOLVING FOR HEAD 

 NO OUTPUT CONTROL FOR STRESS PERIOD    1   TIME STEP  940
 SOLVING FOR ZETA FOR LAYER     1 ZONE     2
 INSUFFICIENT MEMORY FOR DE4 SOLVER:
 MXBW MUST BE AT LEAST  106
 
 SOLVING FOR HEAD 

 NO OUTPUT CONTROL FOR STRESS PERIOD    1   TIME STEP  941
 SOLVING FOR ZETA FOR LAYER     1 ZONE     2
 INSUFFICIENT MEMORY FOR DE4 SOLVER:
 MXBW MUST BE AT LEAST  106
 
 SOLVING FOR HEAD 

 NO OUTPUT CONTROL FOR STRESS PERIOD    1   TIME STEP  942
 SOLVING FOR ZETA FOR LAYER     1 ZONE     2
 INSUFFICIENT MEMORY FOR DE4 SOLVER:
 MXBW MUST BE AT LEAST  106
 
 SOLVING FOR HEAD 

 NO OUTPUT CONTROL FOR STRESS PERIOD    1   TIME STEP  943
 SOLVING FOR ZETA FOR LAYER     1 ZONE     2
 INSUFFICIENT MEMORY FOR DE4 SOLVER:
 MXBW MUST BE AT LEAST  106
 
 SOLVING FOR HEAD 

 NO OUTPUT CONTROL FOR STRESS PERIOD    1   TIME STEP  944
 SOLVING FOR ZETA FOR LAYER     1 ZONE     2
 INSUFFICIENT MEMORY FOR DE4 SOLVER:
 MXBW MUST BE AT LEAST  106
 
 SOLVING FOR HEAD 

 NO OUTPUT CONTROL FOR STRESS PERIOD    1   TIME STEP  945
 SOLVING FOR ZETA FOR LAYER     1 ZONE     2
 INSUFFICIENT MEMORY FOR DE4 SOLVER:
 MXBW MUST BE AT LEAST  106
 
 SOLVING FOR HEAD 

 NO OUTPUT CONTROL FOR STRESS PERIOD    1   TIME STEP  946
 SOLVING FOR ZETA FOR LAYER     1 ZONE     2
 INSUFFICIENT MEMORY FOR DE4 SOLVER:
 MXBW MUST BE AT LEAST  106
 
 SOLVING FOR HEAD 

 NO OUTPUT CONTROL FOR STRESS PERIOD    1   TIME STEP  947
 SOLVING FOR ZETA FOR LAYER     1 ZONE     2
 INSUFFICIENT MEMORY FOR DE4 SOLVER:
 MXBW MUST BE AT LEAST  106
 
 SOLVING FOR HEAD 

 NO OUTPUT CONTROL FOR STRESS PERIOD    1   TIME STEP  948
 SOLVING FOR ZETA FOR LAYER     1 ZONE     2
 INSUFFICIENT MEMORY FOR DE4 SOLVER:
 MXBW MUST BE AT LEAST  106
 
 SOLVING FOR HEAD 

 NO OUTPUT CONTROL FOR STRESS PERIOD    1   TIME STEP  949
 SOLVING FOR ZETA FOR LAYER     1 ZONE     2
 INSUFFICIENT MEMORY FOR DE4 SOLVER:
 MXBW MUST BE AT LEAST  106
 
 SOLVING FOR HEAD 

 NO OUTPUT CONTROL FOR STRESS PERIOD    1   TIME STEP  950
 SOLVING FOR ZETA FOR LAYER     1 ZONE     2
 INSUFFICIENT MEMORY FOR DE4 SOLVER:
 MXBW MUST BE AT LEAST  106
 
 SOLVING FOR HEAD 

 NO OUTPUT CONTROL FOR STRESS PERIOD    1   TIME STEP  951
 SOLVING FOR ZETA FOR LAYER     1 ZONE     2
 INSUFFICIENT MEMORY FOR DE4 SOLVER:
 MXBW MUST BE AT LEAST  106
 
 SOLVING FOR HEAD 

 NO OUTPUT CONTROL FOR STRESS PERIOD    1   TIME STEP  952
 SOLVING FOR ZETA FOR LAYER     1 ZONE     2
 INSUFFICIENT MEMORY FOR DE4 SOLVER:
 MXBW MUST BE AT LEAST  106
 
 SOLVING FOR HEAD 

 NO OUTPUT CONTROL FOR STRESS PERIOD    1   TIME STEP  953
 SOLVING FOR ZETA FOR LAYER     1 ZONE     2
 INSUFFICIENT MEMORY FOR DE4 SOLVER:
 MXBW MUST BE AT LEAST  106
 
 SOLVING FOR HEAD 

 NO OUTPUT CONTROL FOR STRESS PERIOD    1   TIME STEP  954
 SOLVING FOR ZETA FOR LAYER     1 ZONE     2
 INSUFFICIENT MEMORY FOR DE4 SOLVER:
 MXBW MUST BE AT LEAST  106
 
 SOLVING FOR HEAD 

 NO OUTPUT CONTROL FOR STRESS PERIOD    1   TIME STEP  955
 SOLVING FOR ZETA FOR LAYER     1 ZONE     2
 INSUFFICIENT MEMORY FOR DE4 SOLVER:
 MXBW MUST BE AT LEAST  106
 
 SOLVING FOR HEAD 

 NO OUTPUT CONTROL FOR STRESS PERIOD    1   TIME STEP  956
 SOLVING FOR ZETA FOR LAYER     1 ZONE     2
 INSUFFICIENT MEMORY FOR DE4 SOLVER:
 MXBW MUST BE AT LEAST  106
 
 SOLVING FOR HEAD 

 NO OUTPUT CONTROL FOR STRESS PERIOD    1   TIME STEP  957
 SOLVING FOR ZETA FOR LAYER     1 ZONE     2
 INSUFFICIENT MEMORY FOR DE4 SOLVER:
 MXBW MUST BE AT LEAST  106
 
 SOLVING FOR HEAD 

 NO OUTPUT CONTROL FOR STRESS PERIOD    1   TIME STEP  958
 SOLVING FOR ZETA FOR LAYER     1 ZONE     2
 INSUFFICIENT MEMORY FOR DE4 SOLVER:
 MXBW MUST BE AT LEAST  106
 
 SOLVING FOR HEAD 

 NO OUTPUT CONTROL FOR STRESS PERIOD    1   TIME STEP  959
 SOLVING FOR ZETA FOR LAYER     1 ZONE     2
 INSUFFICIENT MEMORY FOR DE4 SOLVER:
 MXBW MUST BE AT LEAST  106
 
 SOLVING FOR HEAD 

 NO OUTPUT CONTROL FOR STRESS PERIOD    1   TIME STEP  960
 SOLVING FOR ZETA FOR LAYER     1 ZONE     2
 INSUFFICIENT MEMORY FOR DE4 SOLVER:
 MXBW MUST BE AT LEAST  106
 
 SOLVING FOR HEAD 

 NO OUTPUT CONTROL FOR STRESS PERIOD    1   TIME STEP  961
 SOLVING FOR ZETA FOR LAYER     1 ZONE     2
 INSUFFICIENT MEMORY FOR DE4 SOLVER:
 MXBW MUST BE AT LEAST  106
 
 SOLVING FOR HEAD 

 NO OUTPUT CONTROL FOR STRESS PERIOD    1   TIME STEP  962
 SOLVING FOR ZETA FOR LAYER     1 ZONE     2
 INSUFFICIENT MEMORY FOR DE4 SOLVER:
 MXBW MUST BE AT LEAST  106
 
 SOLVING FOR HEAD 

 NO OUTPUT CONTROL FOR STRESS PERIOD    1   TIME STEP  963
 SOLVING FOR ZETA FOR LAYER     1 ZONE     2
 INSUFFICIENT MEMORY FOR DE4 SOLVER:
 MXBW MUST BE AT LEAST  106
 
 SOLVING FOR HEAD 

 NO OUTPUT CONTROL FOR STRESS PERIOD    1   TIME STEP  964
 SOLVING FOR ZETA FOR LAYER     1 ZONE     2
 INSUFFICIENT MEMORY FOR DE4 SOLVER:
 MXBW MUST BE AT LEAST  106
 
 SOLVING FOR HEAD 

 NO OUTPUT CONTROL FOR STRESS PERIOD    1   TIME STEP  965
 SOLVING FOR ZETA FOR LAYER     1 ZONE     2
 INSUFFICIENT MEMORY FOR DE4 SOLVER:
 MXBW MUST BE AT LEAST  106
 
 SOLVING FOR HEAD 

 NO OUTPUT CONTROL FOR STRESS PERIOD    1   TIME STEP  966
 SOLVING FOR ZETA FOR LAYER     1 ZONE     2
 INSUFFICIENT MEMORY FOR DE4 SOLVER:
 MXBW MUST BE AT LEAST  106
 
 SOLVING FOR HEAD 

 NO OUTPUT CONTROL FOR STRESS PERIOD    1   TIME STEP  967
 SOLVING FOR ZETA FOR LAYER     1 ZONE     2
 INSUFFICIENT MEMORY FOR DE4 SOLVER:
 MXBW MUST BE AT LEAST  106
 
 SOLVING FOR HEAD 

 NO OUTPUT CONTROL FOR STRESS PERIOD    1   TIME STEP  968
 SOLVING FOR ZETA FOR LAYER     1 ZONE     2
 INSUFFICIENT MEMORY FOR DE4 SOLVER:
 MXBW MUST BE AT LEAST  106
 
 SOLVING FOR HEAD 

 NO OUTPUT CONTROL FOR STRESS PERIOD    1   TIME STEP  969
 SOLVING FOR ZETA FOR LAYER     1 ZONE     2
 INSUFFICIENT MEMORY FOR DE4 SOLVER:
 MXBW MUST BE AT LEAST  106
 
 SOLVING FOR HEAD 

 NO OUTPUT CONTROL FOR STRESS PERIOD    1   TIME STEP  970
 SOLVING FOR ZETA FOR LAYER     1 ZONE     2
 INSUFFICIENT MEMORY FOR DE4 SOLVER:
 MXBW MUST BE AT LEAST  106
 
 SOLVING FOR HEAD 

 NO OUTPUT CONTROL FOR STRESS PERIOD    1   TIME STEP  971
 SOLVING FOR ZETA FOR LAYER     1 ZONE     2
 INSUFFICIENT MEMORY FOR DE4 SOLVER:
 MXBW MUST BE AT LEAST  106
 
 SOLVING FOR HEAD 

 NO OUTPUT CONTROL FOR STRESS PERIOD    1   TIME STEP  972
 SOLVING FOR ZETA FOR LAYER     1 ZONE     2
 INSUFFICIENT MEMORY FOR DE4 SOLVER:
 MXBW MUST BE AT LEAST  106
 
 SOLVING FOR HEAD 

 NO OUTPUT CONTROL FOR STRESS PERIOD    1   TIME STEP  973
 SOLVING FOR ZETA FOR LAYER     1 ZONE     2
 INSUFFICIENT MEMORY FOR DE4 SOLVER:
 MXBW MUST BE AT LEAST  106
 
 SOLVING FOR HEAD 

 NO OUTPUT CONTROL FOR STRESS PERIOD    1   TIME STEP  974
 SOLVING FOR ZETA FOR LAYER     1 ZONE     2
 INSUFFICIENT MEMORY FOR DE4 SOLVER:
 MXBW MUST BE AT LEAST  106
 
 SOLVING FOR HEAD 

 NO OUTPUT CONTROL FOR STRESS PERIOD    1   TIME STEP  975
 SOLVING FOR ZETA FOR LAYER     1 ZONE     2
 INSUFFICIENT MEMORY FOR DE4 SOLVER:
 MXBW MUST BE AT LEAST  106
 
 SOLVING FOR HEAD 

 NO OUTPUT CONTROL FOR STRESS PERIOD    1   TIME STEP  976
 SOLVING FOR ZETA FOR LAYER     1 ZONE     2
 INSUFFICIENT MEMORY FOR DE4 SOLVER:
 MXBW MUST BE AT LEAST  106
 
 SOLVING FOR HEAD 

 NO OUTPUT CONTROL FOR STRESS PERIOD    1   TIME STEP  977
 SOLVING FOR ZETA FOR LAYER     1 ZONE     2
 INSUFFICIENT MEMORY FOR DE4 SOLVER:
 MXBW MUST BE AT LEAST  106
 
 SOLVING FOR HEAD 

 NO OUTPUT CONTROL FOR STRESS PERIOD    1   TIME STEP  978
 SOLVING FOR ZETA FOR LAYER     1 ZONE     2
 INSUFFICIENT MEMORY FOR DE4 SOLVER:
 MXBW MUST BE AT LEAST  106
 
 SOLVING FOR HEAD 

 NO OUTPUT CONTROL FOR STRESS PERIOD    1   TIME STEP  979
 SOLVING FOR ZETA FOR LAYER     1 ZONE     2
 INSUFFICIENT MEMORY FOR DE4 SOLVER:
 MXBW MUST BE AT LEAST  106
 
 SOLVING FOR HEAD 

 NO OUTPUT CONTROL FOR STRESS PERIOD    1   TIME STEP  980
 SOLVING FOR ZETA FOR LAYER     1 ZONE     2
 INSUFFICIENT MEMORY FOR DE4 SOLVER:
 MXBW MUST BE AT LEAST  106
 
 SOLVING FOR HEAD 

 NO OUTPUT CONTROL FOR STRESS PERIOD    1   TIME STEP  981
 SOLVING FOR ZETA FOR LAYER     1 ZONE     2
 INSUFFICIENT MEMORY FOR DE4 SOLVER:
 MXBW MUST BE AT LEAST  106
 
 SOLVING FOR HEAD 

 NO OUTPUT CONTROL FOR STRESS PERIOD    1   TIME STEP  982
 SOLVING FOR ZETA FOR LAYER     1 ZONE     2
 INSUFFICIENT MEMORY FOR DE4 SOLVER:
 MXBW MUST BE AT LEAST  106
 
 SOLVING FOR HEAD 

 NO OUTPUT CONTROL FOR STRESS PERIOD    1   TIME STEP  983
 SOLVING FOR ZETA FOR LAYER     1 ZONE     2
 INSUFFICIENT MEMORY FOR DE4 SOLVER:
 MXBW MUST BE AT LEAST  106
 
 SOLVING FOR HEAD 

 NO OUTPUT CONTROL FOR STRESS PERIOD    1   TIME STEP  984
 SOLVING FOR ZETA FOR LAYER     1 ZONE     2
 INSUFFICIENT MEMORY FOR DE4 SOLVER:
 MXBW MUST BE AT LEAST  106
 
 SOLVING FOR HEAD 

 NO OUTPUT CONTROL FOR STRESS PERIOD    1   TIME STEP  985
 SOLVING FOR ZETA FOR LAYER     1 ZONE     2
 INSUFFICIENT MEMORY FOR DE4 SOLVER:
 MXBW MUST BE AT LEAST  106
 
 SOLVING FOR HEAD 

 NO OUTPUT CONTROL FOR STRESS PERIOD    1   TIME STEP  986
 SOLVING FOR ZETA FOR LAYER     1 ZONE     2
 INSUFFICIENT MEMORY FOR DE4 SOLVER:
 MXBW MUST BE AT LEAST  106
 
 SOLVING FOR HEAD 

 NO OUTPUT CONTROL FOR STRESS PERIOD    1   TIME STEP  987
 SOLVING FOR ZETA FOR LAYER     1 ZONE     2
 INSUFFICIENT MEMORY FOR DE4 SOLVER:
 MXBW MUST BE AT LEAST  106
 
 SOLVING FOR HEAD 

 NO OUTPUT CONTROL FOR STRESS PERIOD    1   TIME STEP  988
 SOLVING FOR ZETA FOR LAYER     1 ZONE     2
 INSUFFICIENT MEMORY FOR DE4 SOLVER:
 MXBW MUST BE AT LEAST  106
 
 SOLVING FOR HEAD 

 NO OUTPUT CONTROL FOR STRESS PERIOD    1   TIME STEP  989
 SOLVING FOR ZETA FOR LAYER     1 ZONE     2
 INSUFFICIENT MEMORY FOR DE4 SOLVER:
 MXBW MUST BE AT LEAST  106
 
 SOLVING FOR HEAD 

 NO OUTPUT CONTROL FOR STRESS PERIOD    1   TIME STEP  990
 SOLVING FOR ZETA FOR LAYER     1 ZONE     2
 INSUFFICIENT MEMORY FOR DE4 SOLVER:
 MXBW MUST BE AT LEAST  106
 
 SOLVING FOR HEAD 

 NO OUTPUT CONTROL FOR STRESS PERIOD    1   TIME STEP  991
 SOLVING FOR ZETA FOR LAYER     1 ZONE     2
 INSUFFICIENT MEMORY FOR DE4 SOLVER:
 MXBW MUST BE AT LEAST  106
 
 SOLVING FOR HEAD 

 NO OUTPUT CONTROL FOR STRESS PERIOD    1   TIME STEP  992
 SOLVING FOR ZETA FOR LAYER     1 ZONE     2
 INSUFFICIENT MEMORY FOR DE4 SOLVER:
 MXBW MUST BE AT LEAST  106
 
 SOLVING FOR HEAD 

 NO OUTPUT CONTROL FOR STRESS PERIOD    1   TIME STEP  993
 SOLVING FOR ZETA FOR LAYER     1 ZONE     2
 INSUFFICIENT MEMORY FOR DE4 SOLVER:
 MXBW MUST BE AT LEAST  106
 
 SOLVING FOR HEAD 

 NO OUTPUT CONTROL FOR STRESS PERIOD    1   TIME STEP  994
 SOLVING FOR ZETA FOR LAYER     1 ZONE     2
 INSUFFICIENT MEMORY FOR DE4 SOLVER:
 MXBW MUST BE AT LEAST  106
 
 SOLVING FOR HEAD 

 NO OUTPUT CONTROL FOR STRESS PERIOD    1   TIME STEP  995
 SOLVING FOR ZETA FOR LAYER     1 ZONE     2
 INSUFFICIENT MEMORY FOR DE4 SOLVER:
 MXBW MUST BE AT LEAST  106
 
 SOLVING FOR HEAD 

 NO OUTPUT CONTROL FOR STRESS PERIOD    1   TIME STEP  996
 SOLVING FOR ZETA FOR LAYER     1 ZONE     2
 INSUFFICIENT MEMORY FOR DE4 SOLVER:
 MXBW MUST BE AT LEAST  106
 
 SOLVING FOR HEAD 

 NO OUTPUT CONTROL FOR STRESS PERIOD    1   TIME STEP  997
 SOLVING FOR ZETA FOR LAYER     1 ZONE     2
 INSUFFICIENT MEMORY FOR DE4 SOLVER:
 MXBW MUST BE AT LEAST  106
 
 SOLVING FOR HEAD 

 NO OUTPUT CONTROL FOR STRESS PERIOD    1   TIME STEP  998
 SOLVING FOR ZETA FOR LAYER     1 ZONE     2
 INSUFFICIENT MEMORY FOR DE4 SOLVER:
 MXBW MUST BE AT LEAST  106
 
 SOLVING FOR HEAD 

 NO OUTPUT CONTROL FOR STRESS PERIOD    1   TIME STEP  999
 SOLVING FOR ZETA FOR LAYER     1 ZONE     2
 INSUFFICIENT MEMORY FOR DE4 SOLVER:
 MXBW MUST BE AT LEAST  106
 
 SOLVING FOR HEAD 

 OUTPUT CONTROL FOR STRESS PERIOD    1   TIME STEP 1000
    PRINT BUDGET
    SAVE HEAD FOR ALL LAYERS
 SOLVING FOR ZETA FOR LAYER     1 ZONE     2
 INSUFFICIENT MEMORY FOR DE4 SOLVER:
 MXBW MUST BE AT LEAST  106
 UBUDSV SAVING "      ZETASRF  1" ON UNIT 55 AT TIME STEP***, STRESS PERIOD    1


                      VOLUMETRIC SWI ZONE BUDGET FOR ENTIRE MODEL
                     AT END OF TIME STEP 1000 IN STRESS PERIOD   1
                                      ZONE     1
  -----------------------------------------------------------------------------------

        CUMULATIVE VOLUMES      L**3       RATES FOR THIS TIME STEP      L**3/T
        ------------------                 ------------------------

              IN:                                      IN:
              ---                                      ---
             BOUNDARIES =   427178240.0000            BOUNDARIES =        5858.7690
          CONSTANT HEAD =           0.0000         CONSTANT HEAD =           0.0000
            ZONE CHANGE =     7965907.5000           ZONE CHANGE =           0.0000
       ZONE CHG TIP/TOE =    61564576.0000      ZONE CHG TIP/TOE =           0.0000
            ZONE MIXING =           0.0000           ZONE MIXING =           0.0000

               TOTAL IN =   496708736.0000              TOTAL IN =        5858.7690

             OUT:                                     OUT:
             ----                                     ----
             BOUNDARIES =   276992064.0000            BOUNDARIES =        5861.7627
          CONSTANT HEAD =           0.0000         CONSTANT HEAD =           0.0000
            ZONE CHANGE =    94032848.0000           ZONE CHANGE =           0.0000
       ZONE CHG TIP/TOE =     1242196.5000      ZONE CHG TIP/TOE =           0.0000
            ZONE MIXING =           0.0000           ZONE MIXING =           0.0000

              TOTAL OUT =   372267104.0000             TOTAL OUT =        5861.7627

               IN - OUT =   124441632.0000              IN - OUT =          -2.9937

    PERCENT DISCREPANCY =          28.64     PERCENT DISCREPANCY =          -0.05



                      VOLUMETRIC SWI ZONE BUDGET FOR ENTIRE MODEL
                     AT END OF TIME STEP 1000 IN STRESS PERIOD   1
                                      ZONE     2
  -----------------------------------------------------------------------------------

        CUMULATIVE VOLUMES      L**3       RATES FOR THIS TIME STEP      L**3/T
        ------------------                 ------------------------

              IN:                                      IN:
              ---                                      ---
             BOUNDARIES =     1018452.8750            BOUNDARIES =           2.9940
          CONSTANT HEAD =           0.0000         CONSTANT HEAD =           0.0000
            ZONE CHANGE =    32763186.0000           ZONE CHANGE =           0.0000
       ZONE CHG TIP/TOE =    78124024.0000      ZONE CHG TIP/TOE =           0.0000
            ZONE MIXING =           0.0000           ZONE MIXING =           0.0000

               TOTAL IN =   111905664.0000              TOTAL IN =           2.9940

             OUT:                                     OUT:
             ----                                     ----
             BOUNDARIES =   151210928.0000            BOUNDARIES =       1.5712E-38
          CONSTANT HEAD =           0.0000         CONSTANT HEAD =           0.0000
            ZONE CHANGE =    84847720.0000           ZONE CHANGE =           0.0000
       ZONE CHG TIP/TOE =      294963.1250      ZONE CHG TIP/TOE =           0.0000
            ZONE MIXING =           0.0000           ZONE MIXING =           0.0000

              TOTAL OUT =   236353616.0000             TOTAL OUT =       1.5712E-38

               IN - OUT =  -124447952.0000              IN - OUT =           2.9940

    PERCENT DISCREPANCY =         -71.47     PERCENT DISCREPANCY =         200.00


 HEAD WILL BE SAVED ON UNIT   51 AT END OF TIME STEP 1000, STRESS PERIOD    1
1
  VOLUMETRIC BUDGET FOR ENTIRE MODEL AT END OF TIME STEP 1000, STRESS PERIOD   1
  ------------------------------------------------------------------------------

     CUMULATIVE VOLUMES      L**3       RATES FOR THIS TIME STEP      L**3/T
     ------------------                 ------------------------

           IN:                                      IN:
           ---                                      ---
             STORAGE =           0.0000               STORAGE =           0.0000
       CONSTANT HEAD =           0.0000         CONSTANT HEAD =           0.0000
          SWIADDTOCH =           0.0000            SWIADDTOCH =           0.0000
     HEAD DEP BOUNDS =          15.4227       HEAD DEP BOUNDS =       2.1070E-04
            RECHARGE =   428199680.0000              RECHARGE =        5861.7627

            TOTAL IN =   428199680.0000              TOTAL IN =        5861.7627

          OUT:                                     OUT:
          ----                                     ----
             STORAGE =           0.0000               STORAGE =           0.0000
       CONSTANT HEAD =           0.0000         CONSTANT HEAD =           0.0000
          SWIADDTOCH =           0.0000            SWIADDTOCH =           0.0000
     HEAD DEP BOUNDS =   428199680.0000       HEAD DEP BOUNDS =        5861.7627
            RECHARGE =           0.0000              RECHARGE =           0.0000

           TOTAL OUT =   428199680.0000             TOTAL OUT =        5861.7627

            IN - OUT =           0.0000              IN - OUT =           0.0000

 PERCENT DISCREPANCY =           0.00     PERCENT DISCREPANCY =           0.00






         TIME SUMMARY AT END OF TIME STEP 1000 IN STRESS PERIOD    1
                    SECONDS     MINUTES      HOURS       DAYS        YEARS
                    -----------------------------------------------------------
   TIME STEP LENGTH 6.31152E+06 1.05192E+05  1753.2      73.050     0.20000    
 STRESS PERIOD TIME 6.31154E+09 1.05192E+08 1.75320E+06  73050.      200.00    
         TOTAL TIME 6.31154E+09 1.05192E+08 1.75320E+06  73050.      200.00    
1
1
                            STRESS PERIOD NO.    2, LENGTH =   4383.000    
                            -----------------------------------------------

                              NUMBER OF TIME STEPS =   120

                               MULTIPLIER FOR DELT =     1.000

                            INITIAL TIME STEP SIZE =   36.52500    

 REUSING NON-PARAMETER GHB CELLS FROM LAST STRESS PERIOD

   8042 GHB CELLS

 REUSING RECH FROM LAST STRESS PERIOD
 
 SOLVING FOR HEAD 

 NO OUTPUT CONTROL FOR STRESS PERIOD    2   TIME STEP    1
 SOLVING FOR ZETA FOR LAYER     1 ZONE     2
 INSUFFICIENT MEMORY FOR DE4 SOLVER:
 MXBW MUST BE AT LEAST  106
 
 SOLVING FOR HEAD 

 NO OUTPUT CONTROL FOR STRESS PERIOD    2   TIME STEP    2
 SOLVING FOR ZETA FOR LAYER     1 ZONE     2
 INSUFFICIENT MEMORY FOR DE4 SOLVER:
 MXBW MUST BE AT LEAST  106
 
 SOLVING FOR HEAD 

 NO OUTPUT CONTROL FOR STRESS PERIOD    2   TIME STEP    3
 SOLVING FOR ZETA FOR LAYER     1 ZONE     2
 INSUFFICIENT MEMORY FOR DE4 SOLVER:
 MXBW MUST BE AT LEAST  106
 
 SOLVING FOR HEAD 

 NO OUTPUT CONTROL FOR STRESS PERIOD    2   TIME STEP    4
 SOLVING FOR ZETA FOR LAYER     1 ZONE     2
 INSUFFICIENT MEMORY FOR DE4 SOLVER:
 MXBW MUST BE AT LEAST  106
 
 SOLVING FOR HEAD 

 NO OUTPUT CONTROL FOR STRESS PERIOD    2   TIME STEP    5
 SOLVING FOR ZETA FOR LAYER     1 ZONE     2
 INSUFFICIENT MEMORY FOR DE4 SOLVER:
 MXBW MUST BE AT LEAST  106
 
 SOLVING FOR HEAD 

 NO OUTPUT CONTROL FOR STRESS PERIOD    2   TIME STEP    6
 SOLVING FOR ZETA FOR LAYER     1 ZONE     2
 INSUFFICIENT MEMORY FOR DE4 SOLVER:
 MXBW MUST BE AT LEAST  106
 
 SOLVING FOR HEAD 

 NO OUTPUT CONTROL FOR STRESS PERIOD    2   TIME STEP    7
 SOLVING FOR ZETA FOR LAYER     1 ZONE     2
 INSUFFICIENT MEMORY FOR DE4 SOLVER:
 MXBW MUST BE AT LEAST  106
 
 SOLVING FOR HEAD 

 NO OUTPUT CONTROL FOR STRESS PERIOD    2   TIME STEP    8
 SOLVING FOR ZETA FOR LAYER     1 ZONE     2
 INSUFFICIENT MEMORY FOR DE4 SOLVER:
 MXBW MUST BE AT LEAST  106
 
 SOLVING FOR HEAD 

 NO OUTPUT CONTROL FOR STRESS PERIOD    2   TIME STEP    9
 SOLVING FOR ZETA FOR LAYER     1 ZONE     2
 INSUFFICIENT MEMORY FOR DE4 SOLVER:
 MXBW MUST BE AT LEAST  106
 
 SOLVING FOR HEAD 

 NO OUTPUT CONTROL FOR STRESS PERIOD    2   TIME STEP   10
 SOLVING FOR ZETA FOR LAYER     1 ZONE     2
 INSUFFICIENT MEMORY FOR DE4 SOLVER:
 MXBW MUST BE AT LEAST  106
 
 SOLVING FOR HEAD 

 NO OUTPUT CONTROL FOR STRESS PERIOD    2   TIME STEP   11
 SOLVING FOR ZETA FOR LAYER     1 ZONE     2
 INSUFFICIENT MEMORY FOR DE4 SOLVER:
 MXBW MUST BE AT LEAST  106
 
 SOLVING FOR HEAD 

 NO OUTPUT CONTROL FOR STRESS PERIOD    2   TIME STEP   12
 SOLVING FOR ZETA FOR LAYER     1 ZONE     2
 INSUFFICIENT MEMORY FOR DE4 SOLVER:
 MXBW MUST BE AT LEAST  106
 
 SOLVING FOR HEAD 

 NO OUTPUT CONTROL FOR STRESS PERIOD    2   TIME STEP   13
 SOLVING FOR ZETA FOR LAYER     1 ZONE     2
 INSUFFICIENT MEMORY FOR DE4 SOLVER:
 MXBW MUST BE AT LEAST  106
 
 SOLVING FOR HEAD 

 NO OUTPUT CONTROL FOR STRESS PERIOD    2   TIME STEP   14
 SOLVING FOR ZETA FOR LAYER     1 ZONE     2
 INSUFFICIENT MEMORY FOR DE4 SOLVER:
 MXBW MUST BE AT LEAST  106
 
 SOLVING FOR HEAD 

 NO OUTPUT CONTROL FOR STRESS PERIOD    2   TIME STEP   15
 SOLVING FOR ZETA FOR LAYER     1 ZONE     2
 INSUFFICIENT MEMORY FOR DE4 SOLVER:
 MXBW MUST BE AT LEAST  106
 
 SOLVING FOR HEAD 

 NO OUTPUT CONTROL FOR STRESS PERIOD    2   TIME STEP   16
 SOLVING FOR ZETA FOR LAYER     1 ZONE     2
 INSUFFICIENT MEMORY FOR DE4 SOLVER:
 MXBW MUST BE AT LEAST  106
 
 SOLVING FOR HEAD 

 NO OUTPUT CONTROL FOR STRESS PERIOD    2   TIME STEP   17
 SOLVING FOR ZETA FOR LAYER     1 ZONE     2
 INSUFFICIENT MEMORY FOR DE4 SOLVER:
 MXBW MUST BE AT LEAST  106
 
 SOLVING FOR HEAD 

 NO OUTPUT CONTROL FOR STRESS PERIOD    2   TIME STEP   18
 SOLVING FOR ZETA FOR LAYER     1 ZONE     2
 INSUFFICIENT MEMORY FOR DE4 SOLVER:
 MXBW MUST BE AT LEAST  106
 
 SOLVING FOR HEAD 

 NO OUTPUT CONTROL FOR STRESS PERIOD    2   TIME STEP   19
 SOLVING FOR ZETA FOR LAYER     1 ZONE     2
 INSUFFICIENT MEMORY FOR DE4 SOLVER:
 MXBW MUST BE AT LEAST  106
 
 SOLVING FOR HEAD 

 NO OUTPUT CONTROL FOR STRESS PERIOD    2   TIME STEP   20
 SOLVING FOR ZETA FOR LAYER     1 ZONE     2
 INSUFFICIENT MEMORY FOR DE4 SOLVER:
 MXBW MUST BE AT LEAST  106
 
 SOLVING FOR HEAD 

 NO OUTPUT CONTROL FOR STRESS PERIOD    2   TIME STEP   21
 SOLVING FOR ZETA FOR LAYER     1 ZONE     2
 INSUFFICIENT MEMORY FOR DE4 SOLVER:
 MXBW MUST BE AT LEAST  106
 
 SOLVING FOR HEAD 

 NO OUTPUT CONTROL FOR STRESS PERIOD    2   TIME STEP   22
 SOLVING FOR ZETA FOR LAYER     1 ZONE     2
 INSUFFICIENT MEMORY FOR DE4 SOLVER:
 MXBW MUST BE AT LEAST  106
 
 SOLVING FOR HEAD 

 NO OUTPUT CONTROL FOR STRESS PERIOD    2   TIME STEP   23
 SOLVING FOR ZETA FOR LAYER     1 ZONE     2
 INSUFFICIENT MEMORY FOR DE4 SOLVER:
 MXBW MUST BE AT LEAST  106
 
 SOLVING FOR HEAD 

 NO OUTPUT CONTROL FOR STRESS PERIOD    2   TIME STEP   24
 SOLVING FOR ZETA FOR LAYER     1 ZONE     2
 INSUFFICIENT MEMORY FOR DE4 SOLVER:
 MXBW MUST BE AT LEAST  106
 
 SOLVING FOR HEAD 

 NO OUTPUT CONTROL FOR STRESS PERIOD    2   TIME STEP   25
 SOLVING FOR ZETA FOR LAYER     1 ZONE     2
 INSUFFICIENT MEMORY FOR DE4 SOLVER:
 MXBW MUST BE AT LEAST  106
 
 SOLVING FOR HEAD 

 NO OUTPUT CONTROL FOR STRESS PERIOD    2   TIME STEP   26
 SOLVING FOR ZETA FOR LAYER     1 ZONE     2
 INSUFFICIENT MEMORY FOR DE4 SOLVER:
 MXBW MUST BE AT LEAST  106
 
 SOLVING FOR HEAD 

 NO OUTPUT CONTROL FOR STRESS PERIOD    2   TIME STEP   27
 SOLVING FOR ZETA FOR LAYER     1 ZONE     2
 INSUFFICIENT MEMORY FOR DE4 SOLVER:
 MXBW MUST BE AT LEAST  106
 
 SOLVING FOR HEAD 

 NO OUTPUT CONTROL FOR STRESS PERIOD    2   TIME STEP   28
 SOLVING FOR ZETA FOR LAYER     1 ZONE     2
 INSUFFICIENT MEMORY FOR DE4 SOLVER:
 MXBW MUST BE AT LEAST  106
 
 SOLVING FOR HEAD 

 NO OUTPUT CONTROL FOR STRESS PERIOD    2   TIME STEP   29
 SOLVING FOR ZETA FOR LAYER     1 ZONE     2
 INSUFFICIENT MEMORY FOR DE4 SOLVER:
 MXBW MUST BE AT LEAST  106
 
 SOLVING FOR HEAD 

 NO OUTPUT CONTROL FOR STRESS PERIOD    2   TIME STEP   30
 SOLVING FOR ZETA FOR LAYER     1 ZONE     2
 INSUFFICIENT MEMORY FOR DE4 SOLVER:
 MXBW MUST BE AT LEAST  106
 
 SOLVING FOR HEAD 

 NO OUTPUT CONTROL FOR STRESS PERIOD    2   TIME STEP   31
 SOLVING FOR ZETA FOR LAYER     1 ZONE     2
 INSUFFICIENT MEMORY FOR DE4 SOLVER:
 MXBW MUST BE AT LEAST  106
 
 SOLVING FOR HEAD 

 NO OUTPUT CONTROL FOR STRESS PERIOD    2   TIME STEP   32
 SOLVING FOR ZETA FOR LAYER     1 ZONE     2
 INSUFFICIENT MEMORY FOR DE4 SOLVER:
 MXBW MUST BE AT LEAST  106
 
 SOLVING FOR HEAD 

 NO OUTPUT CONTROL FOR STRESS PERIOD    2   TIME STEP   33
 SOLVING FOR ZETA FOR LAYER     1 ZONE     2
 INSUFFICIENT MEMORY FOR DE4 SOLVER:
 MXBW MUST BE AT LEAST  106
 
 SOLVING FOR HEAD 

 NO OUTPUT CONTROL FOR STRESS PERIOD    2   TIME STEP   34
 SOLVING FOR ZETA FOR LAYER     1 ZONE     2
 INSUFFICIENT MEMORY FOR DE4 SOLVER:
 MXBW MUST BE AT LEAST  106
 
 SOLVING FOR HEAD 

 NO OUTPUT CONTROL FOR STRESS PERIOD    2   TIME STEP   35
 SOLVING FOR ZETA FOR LAYER     1 ZONE     2
 INSUFFICIENT MEMORY FOR DE4 SOLVER:
 MXBW MUST BE AT LEAST  106
 
 SOLVING FOR HEAD 

 NO OUTPUT CONTROL FOR STRESS PERIOD    2   TIME STEP   36
 SOLVING FOR ZETA FOR LAYER     1 ZONE     2
 INSUFFICIENT MEMORY FOR DE4 SOLVER:
 MXBW MUST BE AT LEAST  106
 
 SOLVING FOR HEAD 

 NO OUTPUT CONTROL FOR STRESS PERIOD    2   TIME STEP   37
 SOLVING FOR ZETA FOR LAYER     1 ZONE     2
 INSUFFICIENT MEMORY FOR DE4 SOLVER:
 MXBW MUST BE AT LEAST  106
 
 SOLVING FOR HEAD 

 NO OUTPUT CONTROL FOR STRESS PERIOD    2   TIME STEP   38
 SOLVING FOR ZETA FOR LAYER     1 ZONE     2
 INSUFFICIENT MEMORY FOR DE4 SOLVER:
 MXBW MUST BE AT LEAST  106
 
 SOLVING FOR HEAD 

 NO OUTPUT CONTROL FOR STRESS PERIOD    2   TIME STEP   39
 SOLVING FOR ZETA FOR LAYER     1 ZONE     2
 INSUFFICIENT MEMORY FOR DE4 SOLVER:
 MXBW MUST BE AT LEAST  106
 
 SOLVING FOR HEAD 

 NO OUTPUT CONTROL FOR STRESS PERIOD    2   TIME STEP   40
 SOLVING FOR ZETA FOR LAYER     1 ZONE     2
 INSUFFICIENT MEMORY FOR DE4 SOLVER:
 MXBW MUST BE AT LEAST  106
 
 SOLVING FOR HEAD 

 NO OUTPUT CONTROL FOR STRESS PERIOD    2   TIME STEP   41
 SOLVING FOR ZETA FOR LAYER     1 ZONE     2
 INSUFFICIENT MEMORY FOR DE4 SOLVER:
 MXBW MUST BE AT LEAST  106
 
 SOLVING FOR HEAD 

 NO OUTPUT CONTROL FOR STRESS PERIOD    2   TIME STEP   42
 SOLVING FOR ZETA FOR LAYER     1 ZONE     2
 INSUFFICIENT MEMORY FOR DE4 SOLVER:
 MXBW MUST BE AT LEAST  106
 
 SOLVING FOR HEAD 

 NO OUTPUT CONTROL FOR STRESS PERIOD    2   TIME STEP   43
 SOLVING FOR ZETA FOR LAYER     1 ZONE     2
 INSUFFICIENT MEMORY FOR DE4 SOLVER:
 MXBW MUST BE AT LEAST  106
 
 SOLVING FOR HEAD 

 NO OUTPUT CONTROL FOR STRESS PERIOD    2   TIME STEP   44
 SOLVING FOR ZETA FOR LAYER     1 ZONE     2
 INSUFFICIENT MEMORY FOR DE4 SOLVER:
 MXBW MUST BE AT LEAST  106
 
 SOLVING FOR HEAD 

 NO OUTPUT CONTROL FOR STRESS PERIOD    2   TIME STEP   45
 SOLVING FOR ZETA FOR LAYER     1 ZONE     2
 INSUFFICIENT MEMORY FOR DE4 SOLVER:
 MXBW MUST BE AT LEAST  106
 
 SOLVING FOR HEAD 

 NO OUTPUT CONTROL FOR STRESS PERIOD    2   TIME STEP   46
 SOLVING FOR ZETA FOR LAYER     1 ZONE     2
 INSUFFICIENT MEMORY FOR DE4 SOLVER:
 MXBW MUST BE AT LEAST  106
 
 SOLVING FOR HEAD 

 NO OUTPUT CONTROL FOR STRESS PERIOD    2   TIME STEP   47
 SOLVING FOR ZETA FOR LAYER     1 ZONE     2
 INSUFFICIENT MEMORY FOR DE4 SOLVER:
 MXBW MUST BE AT LEAST  106
 
 SOLVING FOR HEAD 

 NO OUTPUT CONTROL FOR STRESS PERIOD    2   TIME STEP   48
 SOLVING FOR ZETA FOR LAYER     1 ZONE     2
 INSUFFICIENT MEMORY FOR DE4 SOLVER:
 MXBW MUST BE AT LEAST  106
 
 SOLVING FOR HEAD 

 NO OUTPUT CONTROL FOR STRESS PERIOD    2   TIME STEP   49
 SOLVING FOR ZETA FOR LAYER     1 ZONE     2
 INSUFFICIENT MEMORY FOR DE4 SOLVER:
 MXBW MUST BE AT LEAST  106
 
 SOLVING FOR HEAD 

 NO OUTPUT CONTROL FOR STRESS PERIOD    2   TIME STEP   50
 SOLVING FOR ZETA FOR LAYER     1 ZONE     2
 INSUFFICIENT MEMORY FOR DE4 SOLVER:
 MXBW MUST BE AT LEAST  106
 
 SOLVING FOR HEAD 

 NO OUTPUT CONTROL FOR STRESS PERIOD    2   TIME STEP   51
 SOLVING FOR ZETA FOR LAYER     1 ZONE     2
 INSUFFICIENT MEMORY FOR DE4 SOLVER:
 MXBW MUST BE AT LEAST  106
 
 SOLVING FOR HEAD 

 NO OUTPUT CONTROL FOR STRESS PERIOD    2   TIME STEP   52
 SOLVING FOR ZETA FOR LAYER     1 ZONE     2
 INSUFFICIENT MEMORY FOR DE4 SOLVER:
 MXBW MUST BE AT LEAST  106
 
 SOLVING FOR HEAD 

 NO OUTPUT CONTROL FOR STRESS PERIOD    2   TIME STEP   53
 SOLVING FOR ZETA FOR LAYER     1 ZONE     2
 INSUFFICIENT MEMORY FOR DE4 SOLVER:
 MXBW MUST BE AT LEAST  106
 
 SOLVING FOR HEAD 

 NO OUTPUT CONTROL FOR STRESS PERIOD    2   TIME STEP   54
 SOLVING FOR ZETA FOR LAYER     1 ZONE     2
 INSUFFICIENT MEMORY FOR DE4 SOLVER:
 MXBW MUST BE AT LEAST  106
 
 SOLVING FOR HEAD 

 NO OUTPUT CONTROL FOR STRESS PERIOD    2   TIME STEP   55
 SOLVING FOR ZETA FOR LAYER     1 ZONE     2
 INSUFFICIENT MEMORY FOR DE4 SOLVER:
 MXBW MUST BE AT LEAST  106
 
 SOLVING FOR HEAD 

 NO OUTPUT CONTROL FOR STRESS PERIOD    2   TIME STEP   56
 SOLVING FOR ZETA FOR LAYER     1 ZONE     2
 INSUFFICIENT MEMORY FOR DE4 SOLVER:
 MXBW MUST BE AT LEAST  106
 
 SOLVING FOR HEAD 

 NO OUTPUT CONTROL FOR STRESS PERIOD    2   TIME STEP   57
 SOLVING FOR ZETA FOR LAYER     1 ZONE     2
 INSUFFICIENT MEMORY FOR DE4 SOLVER:
 MXBW MUST BE AT LEAST  106
 
 SOLVING FOR HEAD 

 NO OUTPUT CONTROL FOR STRESS PERIOD    2   TIME STEP   58
 SOLVING FOR ZETA FOR LAYER     1 ZONE     2
 INSUFFICIENT MEMORY FOR DE4 SOLVER:
 MXBW MUST BE AT LEAST  106
 
 SOLVING FOR HEAD 

 NO OUTPUT CONTROL FOR STRESS PERIOD    2   TIME STEP   59
 SOLVING FOR ZETA FOR LAYER     1 ZONE     2
 INSUFFICIENT MEMORY FOR DE4 SOLVER:
 MXBW MUST BE AT LEAST  106
 
 SOLVING FOR HEAD 

 OUTPUT CONTROL FOR STRESS PERIOD    2   TIME STEP   60
    PRINT BUDGET
    SAVE HEAD FOR ALL LAYERS
 SOLVING FOR ZETA FOR LAYER     1 ZONE     2
 INSUFFICIENT MEMORY FOR DE4 SOLVER:
 MXBW MUST BE AT LEAST  106
 UBUDSV SAVING "      ZETASRF  1" ON UNIT 55 AT TIME STEP 60, STRESS PERIOD    2


                      VOLUMETRIC SWI ZONE BUDGET FOR ENTIRE MODEL
                     AT END OF TIME STEP   60 IN STRESS PERIOD   2
                                      ZONE     1
  -----------------------------------------------------------------------------------

        CUMULATIVE VOLUMES      L**3       RATES FOR THIS TIME STEP      L**3/T
        ------------------                 ------------------------

              IN:                                      IN:
              ---                                      ---
             BOUNDARIES =   440017280.0000            BOUNDARIES =        5858.7690
          CONSTANT HEAD =           0.0000         CONSTANT HEAD =           0.0000
            ZONE CHANGE =     7965907.5000           ZONE CHANGE =           0.0000
       ZONE CHG TIP/TOE =    61564576.0000      ZONE CHG TIP/TOE =           0.0000
            ZONE MIXING =           0.0000           ZONE MIXING =           0.0000

               TOTAL IN =   509547776.0000              TOTAL IN =        5858.7690

             OUT:                                     OUT:
             ----                                     ----
             BOUNDARIES =   289838784.0000            BOUNDARIES =        5861.7627
          CONSTANT HEAD =           0.0000         CONSTANT HEAD =           0.0000
            ZONE CHANGE =    94032848.0000           ZONE CHANGE =           0.0000
       ZONE CHG TIP/TOE =     1242196.5000      ZONE CHG TIP/TOE =           0.0000
            ZONE MIXING =           0.0000           ZONE MIXING =           0.0000

              TOTAL OUT =   385113824.0000             TOTAL OUT =        5861.7627

               IN - OUT =   124433952.0000              IN - OUT =          -2.9937

    PERCENT DISCREPANCY =          27.82     PERCENT DISCREPANCY =          -0.05



                      VOLUMETRIC SWI ZONE BUDGET FOR ENTIRE MODEL
                     AT END OF TIME STEP   60 IN STRESS PERIOD   2
                                      ZONE     2
  -----------------------------------------------------------------------------------

        CUMULATIVE VOLUMES      L**3       RATES FOR THIS TIME STEP      L**3/T
        ------------------                 ------------------------

              IN:                                      IN:
              ---                                      ---
             BOUNDARIES =     1025015.3750            BOUNDARIES =           2.9940
          CONSTANT HEAD =           0.0000         CONSTANT HEAD =           0.0000
            ZONE CHANGE =    32763186.0000           ZONE CHANGE =           0.0000
       ZONE CHG TIP/TOE =    78124024.0000      ZONE CHG TIP/TOE =           0.0000
            ZONE MIXING =           0.0000           ZONE MIXING =           0.0000

               TOTAL IN =   111912224.0000              TOTAL IN =           2.9940

             OUT:                                     OUT:
             ----                                     ----
             BOUNDARIES =   151210928.0000            BOUNDARIES =       1.5712E-38
          CONSTANT HEAD =           0.0000         CONSTANT HEAD =           0.0000
            ZONE CHANGE =    84847720.0000           ZONE CHANGE =           0.0000
       ZONE CHG TIP/TOE =      294963.1250      ZONE CHG TIP/TOE =           0.0000
            ZONE MIXING =           0.0000           ZONE MIXING =           0.0000

              TOTAL OUT =   236353616.0000             TOTAL OUT =       1.5712E-38

               IN - OUT =  -124441392.0000              IN - OUT =           2.9940

    PERCENT DISCREPANCY =         -71.46     PERCENT DISCREPANCY =         200.00


 HEAD WILL BE SAVED ON UNIT   51 AT END OF TIME STEP   60, STRESS PERIOD    2
1
  VOLUMETRIC BUDGET FOR ENTIRE MODEL AT END OF TIME STEP   60, STRESS PERIOD   2
  ------------------------------------------------------------------------------

     CUMULATIVE VOLUMES      L**3       RATES FOR THIS TIME STEP      L**3/T
     ------------------                 ------------------------

           IN:                                      IN:
           ---                                      ---
             STORAGE =           0.0000               STORAGE =           0.0000
       CONSTANT HEAD =           0.0000         CONSTANT HEAD =           0.0000
          SWIADDTOCH =           0.0000            SWIADDTOCH =           0.0000
     HEAD DEP BOUNDS =          15.8844       HEAD DEP BOUNDS =       2.1070E-04
            RECHARGE =   441046400.0000              RECHARGE =        5861.7627

            TOTAL IN =   441046400.0000              TOTAL IN =        5861.7627

          OUT:                                     OUT:
          ----                                     ----
             STORAGE =           0.0000               STORAGE =           0.0000
       CONSTANT HEAD =           0.0000         CONSTANT HEAD =           0.0000
          SWIADDTOCH =           0.0000            SWIADDTOCH =           0.0000
     HEAD DEP BOUNDS =   441046400.0000       HEAD DEP BOUNDS =        5861.7627
            RECHARGE =           0.0000              RECHARGE =           0.0000

           TOTAL OUT =   441046400.0000             TOTAL OUT =        5861.7627

            IN - OUT =           0.0000              IN - OUT =           0.0000

 PERCENT DISCREPANCY =           0.00     PERCENT DISCREPANCY =           0.00






         TIME SUMMARY AT END OF TIME STEP   60 IN STRESS PERIOD    2
                    SECONDS     MINUTES      HOURS       DAYS        YEARS
                    -----------------------------------------------------------
   TIME STEP LENGTH 3.15576E+06  52596.      876.60      36.525     0.10000    
 STRESS PERIOD TIME 1.89346E+08 3.15576E+06  52596.      2191.5      6.0000    
         TOTAL TIME 6.50087E+09 1.08348E+08 1.80580E+06  75242.      206.00    
1
 
 SOLVING FOR HEAD 

 NO OUTPUT CONTROL FOR STRESS PERIOD    2   TIME STEP   61
 SOLVING FOR ZETA FOR LAYER     1 ZONE     2
 INSUFFICIENT MEMORY FOR DE4 SOLVER:
 MXBW MUST BE AT LEAST  106
 
 SOLVING FOR HEAD 

 NO OUTPUT CONTROL FOR STRESS PERIOD    2   TIME STEP   62
 SOLVING FOR ZETA FOR LAYER     1 ZONE     2
 INSUFFICIENT MEMORY FOR DE4 SOLVER:
 MXBW MUST BE AT LEAST  106
 
 SOLVING FOR HEAD 

 NO OUTPUT CONTROL FOR STRESS PERIOD    2   TIME STEP   63
 SOLVING FOR ZETA FOR LAYER     1 ZONE     2
 INSUFFICIENT MEMORY FOR DE4 SOLVER:
 MXBW MUST BE AT LEAST  106
 
 SOLVING FOR HEAD 

 NO OUTPUT CONTROL FOR STRESS PERIOD    2   TIME STEP   64
 SOLVING FOR ZETA FOR LAYER     1 ZONE     2
 INSUFFICIENT MEMORY FOR DE4 SOLVER:
 MXBW MUST BE AT LEAST  106
 
 SOLVING FOR HEAD 

 NO OUTPUT CONTROL FOR STRESS PERIOD    2   TIME STEP   65
 SOLVING FOR ZETA FOR LAYER     1 ZONE     2
 INSUFFICIENT MEMORY FOR DE4 SOLVER:
 MXBW MUST BE AT LEAST  106
 
 SOLVING FOR HEAD 

 NO OUTPUT CONTROL FOR STRESS PERIOD    2   TIME STEP   66
 SOLVING FOR ZETA FOR LAYER     1 ZONE     2
 INSUFFICIENT MEMORY FOR DE4 SOLVER:
 MXBW MUST BE AT LEAST  106
 
 SOLVING FOR HEAD 

 NO OUTPUT CONTROL FOR STRESS PERIOD    2   TIME STEP   67
 SOLVING FOR ZETA FOR LAYER     1 ZONE     2
 INSUFFICIENT MEMORY FOR DE4 SOLVER:
 MXBW MUST BE AT LEAST  106
 
 SOLVING FOR HEAD 

 NO OUTPUT CONTROL FOR STRESS PERIOD    2   TIME STEP   68
 SOLVING FOR ZETA FOR LAYER     1 ZONE     2
 INSUFFICIENT MEMORY FOR DE4 SOLVER:
 MXBW MUST BE AT LEAST  106
 
 SOLVING FOR HEAD 

 NO OUTPUT CONTROL FOR STRESS PERIOD    2   TIME STEP   69
 SOLVING FOR ZETA FOR LAYER     1 ZONE     2
 INSUFFICIENT MEMORY FOR DE4 SOLVER:
 MXBW MUST BE AT LEAST  106
 
 SOLVING FOR HEAD 

 NO OUTPUT CONTROL FOR STRESS PERIOD    2   TIME STEP   70
 SOLVING FOR ZETA FOR LAYER     1 ZONE     2
 INSUFFICIENT MEMORY FOR DE4 SOLVER:
 MXBW MUST BE AT LEAST  106
 
 SOLVING FOR HEAD 

 NO OUTPUT CONTROL FOR STRESS PERIOD    2   TIME STEP   71
 SOLVING FOR ZETA FOR LAYER     1 ZONE     2
 INSUFFICIENT MEMORY FOR DE4 SOLVER:
 MXBW MUST BE AT LEAST  106
 
 SOLVING FOR HEAD 

 NO OUTPUT CONTROL FOR STRESS PERIOD    2   TIME STEP   72
 SOLVING FOR ZETA FOR LAYER     1 ZONE     2
 INSUFFICIENT MEMORY FOR DE4 SOLVER:
 MXBW MUST BE AT LEAST  106
 
 SOLVING FOR HEAD 

 NO OUTPUT CONTROL FOR STRESS PERIOD    2   TIME STEP   73
 SOLVING FOR ZETA FOR LAYER     1 ZONE     2
 INSUFFICIENT MEMORY FOR DE4 SOLVER:
 MXBW MUST BE AT LEAST  106
 
 SOLVING FOR HEAD 

 NO OUTPUT CONTROL FOR STRESS PERIOD    2   TIME STEP   74
 SOLVING FOR ZETA FOR LAYER     1 ZONE     2
 INSUFFICIENT MEMORY FOR DE4 SOLVER:
 MXBW MUST BE AT LEAST  106
 
 SOLVING FOR HEAD 

 NO OUTPUT CONTROL FOR STRESS PERIOD    2   TIME STEP   75
 SOLVING FOR ZETA FOR LAYER     1 ZONE     2
 INSUFFICIENT MEMORY FOR DE4 SOLVER:
 MXBW MUST BE AT LEAST  106
 
 SOLVING FOR HEAD 

 NO OUTPUT CONTROL FOR STRESS PERIOD    2   TIME STEP   76
 SOLVING FOR ZETA FOR LAYER     1 ZONE     2
 INSUFFICIENT MEMORY FOR DE4 SOLVER:
 MXBW MUST BE AT LEAST  106
 
 SOLVING FOR HEAD 

 NO OUTPUT CONTROL FOR STRESS PERIOD    2   TIME STEP   77
 SOLVING FOR ZETA FOR LAYER     1 ZONE     2
 INSUFFICIENT MEMORY FOR DE4 SOLVER:
 MXBW MUST BE AT LEAST  106
 
 SOLVING FOR HEAD 

 NO OUTPUT CONTROL FOR STRESS PERIOD    2   TIME STEP   78
 SOLVING FOR ZETA FOR LAYER     1 ZONE     2
 INSUFFICIENT MEMORY FOR DE4 SOLVER:
 MXBW MUST BE AT LEAST  106
 
 SOLVING FOR HEAD 

 NO OUTPUT CONTROL FOR STRESS PERIOD    2   TIME STEP   79
 SOLVING FOR ZETA FOR LAYER     1 ZONE     2
 INSUFFICIENT MEMORY FOR DE4 SOLVER:
 MXBW MUST BE AT LEAST  106
 
 SOLVING FOR HEAD 

 NO OUTPUT CONTROL FOR STRESS PERIOD    2   TIME STEP   80
 SOLVING FOR ZETA FOR LAYER     1 ZONE     2
 INSUFFICIENT MEMORY FOR DE4 SOLVER:
 MXBW MUST BE AT LEAST  106
 
 SOLVING FOR HEAD 

 NO OUTPUT CONTROL FOR STRESS PERIOD    2   TIME STEP   81
 SOLVING FOR ZETA FOR LAYER     1 ZONE     2
 INSUFFICIENT MEMORY FOR DE4 SOLVER:
 MXBW MUST BE AT LEAST  106
 
 SOLVING FOR HEAD 

 NO OUTPUT CONTROL FOR STRESS PERIOD    2   TIME STEP   82
 SOLVING FOR ZETA FOR LAYER     1 ZONE     2
 INSUFFICIENT MEMORY FOR DE4 SOLVER:
 MXBW MUST BE AT LEAST  106
 
 SOLVING FOR HEAD 

 NO OUTPUT CONTROL FOR STRESS PERIOD    2   TIME STEP   83
 SOLVING FOR ZETA FOR LAYER     1 ZONE     2
 INSUFFICIENT MEMORY FOR DE4 SOLVER:
 MXBW MUST BE AT LEAST  106
 
 SOLVING FOR HEAD 

 NO OUTPUT CONTROL FOR STRESS PERIOD    2   TIME STEP   84
 SOLVING FOR ZETA FOR LAYER     1 ZONE     2
 INSUFFICIENT MEMORY FOR DE4 SOLVER:
 MXBW MUST BE AT LEAST  106
 
 SOLVING FOR HEAD 

 NO OUTPUT CONTROL FOR STRESS PERIOD    2   TIME STEP   85
 SOLVING FOR ZETA FOR LAYER     1 ZONE     2
 INSUFFICIENT MEMORY FOR DE4 SOLVER:
 MXBW MUST BE AT LEAST  106
 
 SOLVING FOR HEAD 

 NO OUTPUT CONTROL FOR STRESS PERIOD    2   TIME STEP   86
 SOLVING FOR ZETA FOR LAYER     1 ZONE     2
 INSUFFICIENT MEMORY FOR DE4 SOLVER:
 MXBW MUST BE AT LEAST  106
 
 SOLVING FOR HEAD 

 NO OUTPUT CONTROL FOR STRESS PERIOD    2   TIME STEP   87
 SOLVING FOR ZETA FOR LAYER     1 ZONE     2
 INSUFFICIENT MEMORY FOR DE4 SOLVER:
 MXBW MUST BE AT LEAST  106
 
 SOLVING FOR HEAD 

 NO OUTPUT CONTROL FOR STRESS PERIOD    2   TIME STEP   88
 SOLVING FOR ZETA FOR LAYER     1 ZONE     2
 INSUFFICIENT MEMORY FOR DE4 SOLVER:
 MXBW MUST BE AT LEAST  106
 
 SOLVING FOR HEAD 

 NO OUTPUT CONTROL FOR STRESS PERIOD    2   TIME STEP   89
 SOLVING FOR ZETA FOR LAYER     1 ZONE     2
 INSUFFICIENT MEMORY FOR DE4 SOLVER:
 MXBW MUST BE AT LEAST  106
 
 SOLVING FOR HEAD 

 NO OUTPUT CONTROL FOR STRESS PERIOD    2   TIME STEP   90
 SOLVING FOR ZETA FOR LAYER     1 ZONE     2
 INSUFFICIENT MEMORY FOR DE4 SOLVER:
 MXBW MUST BE AT LEAST  106
 
 SOLVING FOR HEAD 

 NO OUTPUT CONTROL FOR STRESS PERIOD    2   TIME STEP   91
 SOLVING FOR ZETA FOR LAYER     1 ZONE     2
 INSUFFICIENT MEMORY FOR DE4 SOLVER:
 MXBW MUST BE AT LEAST  106
 
 SOLVING FOR HEAD 

 NO OUTPUT CONTROL FOR STRESS PERIOD    2   TIME STEP   92
 SOLVING FOR ZETA FOR LAYER     1 ZONE     2
 INSUFFICIENT MEMORY FOR DE4 SOLVER:
 MXBW MUST BE AT LEAST  106
 
 SOLVING FOR HEAD 

 NO OUTPUT CONTROL FOR STRESS PERIOD    2   TIME STEP   93
 SOLVING FOR ZETA FOR LAYER     1 ZONE     2
 INSUFFICIENT MEMORY FOR DE4 SOLVER:
 MXBW MUST BE AT LEAST  106
 
 SOLVING FOR HEAD 

 NO OUTPUT CONTROL FOR STRESS PERIOD    2   TIME STEP   94
 SOLVING FOR ZETA FOR LAYER     1 ZONE     2
 INSUFFICIENT MEMORY FOR DE4 SOLVER:
 MXBW MUST BE AT LEAST  106
 
 SOLVING FOR HEAD 

 NO OUTPUT CONTROL FOR STRESS PERIOD    2   TIME STEP   95
 SOLVING FOR ZETA FOR LAYER     1 ZONE     2
 INSUFFICIENT MEMORY FOR DE4 SOLVER:
 MXBW MUST BE AT LEAST  106
 
 SOLVING FOR HEAD 

 NO OUTPUT CONTROL FOR STRESS PERIOD    2   TIME STEP   96
 SOLVING FOR ZETA FOR LAYER     1 ZONE     2
 INSUFFICIENT MEMORY FOR DE4 SOLVER:
 MXBW MUST BE AT LEAST  106
 
 SOLVING FOR HEAD 

 NO OUTPUT CONTROL FOR STRESS PERIOD    2   TIME STEP   97
 SOLVING FOR ZETA FOR LAYER     1 ZONE     2
 INSUFFICIENT MEMORY FOR DE4 SOLVER:
 MXBW MUST BE AT LEAST  106
 
 SOLVING FOR HEAD 

 NO OUTPUT CONTROL FOR STRESS PERIOD    2   TIME STEP   98
 SOLVING FOR ZETA FOR LAYER     1 ZONE     2
 INSUFFICIENT MEMORY FOR DE4 SOLVER:
 MXBW MUST BE AT LEAST  106
 
 SOLVING FOR HEAD 

 NO OUTPUT CONTROL FOR STRESS PERIOD    2   TIME STEP   99
 SOLVING FOR ZETA FOR LAYER     1 ZONE     2
 INSUFFICIENT MEMORY FOR DE4 SOLVER:
 MXBW MUST BE AT LEAST  106
 
 SOLVING FOR HEAD 

 NO OUTPUT CONTROL FOR STRESS PERIOD    2   TIME STEP  100
 SOLVING FOR ZETA FOR LAYER     1 ZONE     2
 INSUFFICIENT MEMORY FOR DE4 SOLVER:
 MXBW MUST BE AT LEAST  106
 
 SOLVING FOR HEAD 

 NO OUTPUT CONTROL FOR STRESS PERIOD    2   TIME STEP  101
 SOLVING FOR ZETA FOR LAYER     1 ZONE     2
 INSUFFICIENT MEMORY FOR DE4 SOLVER:
 MXBW MUST BE AT LEAST  106
 
 SOLVING FOR HEAD 

 NO OUTPUT CONTROL FOR STRESS PERIOD    2   TIME STEP  102
 SOLVING FOR ZETA FOR LAYER     1 ZONE     2
 INSUFFICIENT MEMORY FOR DE4 SOLVER:
 MXBW MUST BE AT LEAST  106
 
 SOLVING FOR HEAD 

 NO OUTPUT CONTROL FOR STRESS PERIOD    2   TIME STEP  103
 SOLVING FOR ZETA FOR LAYER     1 ZONE     2
 INSUFFICIENT MEMORY FOR DE4 SOLVER:
 MXBW MUST BE AT LEAST  106
 
 SOLVING FOR HEAD 

 NO OUTPUT CONTROL FOR STRESS PERIOD    2   TIME STEP  104
 SOLVING FOR ZETA FOR LAYER     1 ZONE     2
 INSUFFICIENT MEMORY FOR DE4 SOLVER:
 MXBW MUST BE AT LEAST  106
 
 SOLVING FOR HEAD 

 NO OUTPUT CONTROL FOR STRESS PERIOD    2   TIME STEP  105
 SOLVING FOR ZETA FOR LAYER     1 ZONE     2
 INSUFFICIENT MEMORY FOR DE4 SOLVER:
 MXBW MUST BE AT LEAST  106
 
 SOLVING FOR HEAD 

 NO OUTPUT CONTROL FOR STRESS PERIOD    2   TIME STEP  106
 SOLVING FOR ZETA FOR LAYER     1 ZONE     2
 INSUFFICIENT MEMORY FOR DE4 SOLVER:
 MXBW MUST BE AT LEAST  106
 
 SOLVING FOR HEAD 

 NO OUTPUT CONTROL FOR STRESS PERIOD    2   TIME STEP  107
 SOLVING FOR ZETA FOR LAYER     1 ZONE     2
 INSUFFICIENT MEMORY FOR DE4 SOLVER:
 MXBW MUST BE AT LEAST  106
 
 SOLVING FOR HEAD 

 NO OUTPUT CONTROL FOR STRESS PERIOD    2   TIME STEP  108
 SOLVING FOR ZETA FOR LAYER     1 ZONE     2
 INSUFFICIENT MEMORY FOR DE4 SOLVER:
 MXBW MUST BE AT LEAST  106
 
 SOLVING FOR HEAD 

 NO OUTPUT CONTROL FOR STRESS PERIOD    2   TIME STEP  109
 SOLVING FOR ZETA FOR LAYER     1 ZONE     2
 INSUFFICIENT MEMORY FOR DE4 SOLVER:
 MXBW MUST BE AT LEAST  106
 
 SOLVING FOR HEAD 

 NO OUTPUT CONTROL FOR STRESS PERIOD    2   TIME STEP  110
 SOLVING FOR ZETA FOR LAYER     1 ZONE     2
 INSUFFICIENT MEMORY FOR DE4 SOLVER:
 MXBW MUST BE AT LEAST  106
 
 SOLVING FOR HEAD 

 NO OUTPUT CONTROL FOR STRESS PERIOD    2   TIME STEP  111
 SOLVING FOR ZETA FOR LAYER     1 ZONE     2
 INSUFFICIENT MEMORY FOR DE4 SOLVER:
 MXBW MUST BE AT LEAST  106
 
 SOLVING FOR HEAD 

 NO OUTPUT CONTROL FOR STRESS PERIOD    2   TIME STEP  112
 SOLVING FOR ZETA FOR LAYER     1 ZONE     2
 INSUFFICIENT MEMORY FOR DE4 SOLVER:
 MXBW MUST BE AT LEAST  106
 
 SOLVING FOR HEAD 

 NO OUTPUT CONTROL FOR STRESS PERIOD    2   TIME STEP  113
 SOLVING FOR ZETA FOR LAYER     1 ZONE     2
 INSUFFICIENT MEMORY FOR DE4 SOLVER:
 MXBW MUST BE AT LEAST  106
 
 SOLVING FOR HEAD 

 NO OUTPUT CONTROL FOR STRESS PERIOD    2   TIME STEP  114
 SOLVING FOR ZETA FOR LAYER     1 ZONE     2
 INSUFFICIENT MEMORY FOR DE4 SOLVER:
 MXBW MUST BE AT LEAST  106
 
 SOLVING FOR HEAD 

 NO OUTPUT CONTROL FOR STRESS PERIOD    2   TIME STEP  115
 SOLVING FOR ZETA FOR LAYER     1 ZONE     2
 INSUFFICIENT MEMORY FOR DE4 SOLVER:
 MXBW MUST BE AT LEAST  106
 
 SOLVING FOR HEAD 

 NO OUTPUT CONTROL FOR STRESS PERIOD    2   TIME STEP  116
 SOLVING FOR ZETA FOR LAYER     1 ZONE     2
 INSUFFICIENT MEMORY FOR DE4 SOLVER:
 MXBW MUST BE AT LEAST  106
 
 SOLVING FOR HEAD 

 NO OUTPUT CONTROL FOR STRESS PERIOD    2   TIME STEP  117
 SOLVING FOR ZETA FOR LAYER     1 ZONE     2
 INSUFFICIENT MEMORY FOR DE4 SOLVER:
 MXBW MUST BE AT LEAST  106
 
 SOLVING FOR HEAD 

 NO OUTPUT CONTROL FOR STRESS PERIOD    2   TIME STEP  118
 SOLVING FOR ZETA FOR LAYER     1 ZONE     2
 INSUFFICIENT MEMORY FOR DE4 SOLVER:
 MXBW MUST BE AT LEAST  106
 
 SOLVING FOR HEAD 

 NO OUTPUT CONTROL FOR STRESS PERIOD    2   TIME STEP  119
 SOLVING FOR ZETA FOR LAYER     1 ZONE     2
 INSUFFICIENT MEMORY FOR DE4 SOLVER:
 MXBW MUST BE AT LEAST  106
 
 SOLVING FOR HEAD 

 OUTPUT CONTROL FOR STRESS PERIOD    2   TIME STEP  120
    PRINT BUDGET
    SAVE HEAD FOR ALL LAYERS
 SOLVING FOR ZETA FOR LAYER     1 ZONE     2
 INSUFFICIENT MEMORY FOR DE4 SOLVER:
 MXBW MUST BE AT LEAST  106
 UBUDSV SAVING "      ZETASRF  1" ON UNIT 55 AT TIME STEP120, STRESS PERIOD    2


                      VOLUMETRIC SWI ZONE BUDGET FOR ENTIRE MODEL
                     AT END OF TIME STEP  120 IN STRESS PERIOD   2
                                      ZONE     1
  -----------------------------------------------------------------------------------

        CUMULATIVE VOLUMES      L**3       RATES FOR THIS TIME STEP      L**3/T
        ------------------                 ------------------------

              IN:                                      IN:
              ---                                      ---
             BOUNDARIES =   452856320.0000            BOUNDARIES =        5858.7690
          CONSTANT HEAD =           0.0000         CONSTANT HEAD =           0.0000
            ZONE CHANGE =     7965907.5000           ZONE CHANGE =           0.0000
       ZONE CHG TIP/TOE =    61564576.0000      ZONE CHG TIP/TOE =           0.0000
            ZONE MIXING =           0.0000           ZONE MIXING =           0.0000

               TOTAL IN =   522386816.0000              TOTAL IN =        5858.7690

             OUT:                                     OUT:
             ----                                     ----
             BOUNDARIES =   302685504.0000            BOUNDARIES =        5861.7627
          CONSTANT HEAD =           0.0000         CONSTANT HEAD =           0.0000
            ZONE CHANGE =    94032848.0000           ZONE CHANGE =           0.0000
       ZONE CHG TIP/TOE =     1242196.5000      ZONE CHG TIP/TOE =           0.0000
            ZONE MIXING =           0.0000           ZONE MIXING =           0.0000

              TOTAL OUT =   397960544.0000             TOTAL OUT =        5861.7627

               IN - OUT =   124426272.0000              IN - OUT =          -2.9937

    PERCENT DISCREPANCY =          27.04     PERCENT DISCREPANCY =          -0.05



                      VOLUMETRIC SWI ZONE BUDGET FOR ENTIRE MODEL
                     AT END OF TIME STEP  120 IN STRESS PERIOD   2
                                      ZONE     2
  -----------------------------------------------------------------------------------

        CUMULATIVE VOLUMES      L**3       RATES FOR THIS TIME STEP      L**3/T
        ------------------                 ------------------------

              IN:                                      IN:
              ---                                      ---
             BOUNDARIES =     1031577.8750            BOUNDARIES =           2.9940
          CONSTANT HEAD =           0.0000         CONSTANT HEAD =           0.0000
            ZONE CHANGE =    32763186.0000           ZONE CHANGE =           0.0000
       ZONE CHG TIP/TOE =    78124024.0000      ZONE CHG TIP/TOE =           0.0000
            ZONE MIXING =           0.0000           ZONE MIXING =           0.0000

               TOTAL IN =   111918784.0000              TOTAL IN =           2.9940

             OUT:                                     OUT:
             ----                                     ----
             BOUNDARIES =   151210928.0000            BOUNDARIES =       1.5712E-38
          CONSTANT HEAD =           0.0000         CONSTANT HEAD =           0.0000
            ZONE CHANGE =    84847720.0000           ZONE CHANGE =           0.0000
       ZONE CHG TIP/TOE =      294963.1250      ZONE CHG TIP/TOE =           0.0000
            ZONE MIXING =           0.0000           ZONE MIXING =           0.0000

              TOTAL OUT =   236353616.0000             TOTAL OUT =       1.5712E-38

               IN - OUT =  -124434832.0000              IN - OUT =           2.9940

    PERCENT DISCREPANCY =         -71.46     PERCENT DISCREPANCY =         200.00


 HEAD WILL BE SAVED ON UNIT   51 AT END OF TIME STEP  120, STRESS PERIOD    2
1
  VOLUMETRIC BUDGET FOR ENTIRE MODEL AT END OF TIME STEP  120, STRESS PERIOD   2
  ------------------------------------------------------------------------------

     CUMULATIVE VOLUMES      L**3       RATES FOR THIS TIME STEP      L**3/T
     ------------------                 ------------------------

           IN:                                      IN:
           ---                                      ---
             STORAGE =           0.0000               STORAGE =           0.0000
       CONSTANT HEAD =           0.0000         CONSTANT HEAD =           0.0000
          SWIADDTOCH =           0.0000            SWIADDTOCH =           0.0000
     HEAD DEP BOUNDS =          16.3462       HEAD DEP BOUNDS =       2.1070E-04
            RECHARGE =   453893120.0000              RECHARGE =        5861.7627

            TOTAL IN =   453893152.0000              TOTAL IN =        5861.7627

          OUT:                                     OUT:
          ----                                     ----
             STORAGE =           0.0000               STORAGE =           0.0000
       CONSTANT HEAD =           0.0000         CONSTANT HEAD =           0.0000
          SWIADDTOCH =           0.0000            SWIADDTOCH =           0.0000
     HEAD DEP BOUNDS =   453893120.0000       HEAD DEP BOUNDS =        5861.7627
            RECHARGE =           0.0000              RECHARGE =           0.0000

           TOTAL OUT =   453893120.0000             TOTAL OUT =        5861.7627

            IN - OUT =          32.0000              IN - OUT =           0.0000

 PERCENT DISCREPANCY =           0.00     PERCENT DISCREPANCY =           0.00






         TIME SUMMARY AT END OF TIME STEP  120 IN STRESS PERIOD    2
                    SECONDS     MINUTES      HOURS       DAYS        YEARS
                    -----------------------------------------------------------
   TIME STEP LENGTH 3.15576E+06  52596.      876.60      36.525     0.10000    
 STRESS PERIOD TIME 3.78691E+08 6.31151E+06 1.05192E+05  4383.0      12.000    
         TOTAL TIME 6.69021E+09 1.11503E+08 1.85839E+06  77433.      212.00    
1
1
                            STRESS PERIOD NO.    3, LENGTH =   6574.500    
                            -----------------------------------------------

                              NUMBER OF TIME STEPS =   180

                               MULTIPLIER FOR DELT =     1.000

                            INITIAL TIME STEP SIZE =   36.52500    

 REUSING NON-PARAMETER GHB CELLS FROM LAST STRESS PERIOD

   8042 GHB CELLS

 REUSING RECH FROM LAST STRESS PERIOD
 
 SOLVING FOR HEAD 

 NO OUTPUT CONTROL FOR STRESS PERIOD    3   TIME STEP    1
 SOLVING FOR ZETA FOR LAYER     1 ZONE     2
 INSUFFICIENT MEMORY FOR DE4 SOLVER:
 MXBW MUST BE AT LEAST  106
 
 SOLVING FOR HEAD 

 NO OUTPUT CONTROL FOR STRESS PERIOD    3   TIME STEP    2
 SOLVING FOR ZETA FOR LAYER     1 ZONE     2
 INSUFFICIENT MEMORY FOR DE4 SOLVER:
 MXBW MUST BE AT LEAST  106
 
 SOLVING FOR HEAD 

 NO OUTPUT CONTROL FOR STRESS PERIOD    3   TIME STEP    3
 SOLVING FOR ZETA FOR LAYER     1 ZONE     2
 INSUFFICIENT MEMORY FOR DE4 SOLVER:
 MXBW MUST BE AT LEAST  106
 
 SOLVING FOR HEAD 

 NO OUTPUT CONTROL FOR STRESS PERIOD    3   TIME STEP    4
 SOLVING FOR ZETA FOR LAYER     1 ZONE     2
 INSUFFICIENT MEMORY FOR DE4 SOLVER:
 MXBW MUST BE AT LEAST  106
 
 SOLVING FOR HEAD 

 NO OUTPUT CONTROL FOR STRESS PERIOD    3   TIME STEP    5
 SOLVING FOR ZETA FOR LAYER     1 ZONE     2
 INSUFFICIENT MEMORY FOR DE4 SOLVER:
 MXBW MUST BE AT LEAST  106
 
 SOLVING FOR HEAD 

 NO OUTPUT CONTROL FOR STRESS PERIOD    3   TIME STEP    6
 SOLVING FOR ZETA FOR LAYER     1 ZONE     2
 INSUFFICIENT MEMORY FOR DE4 SOLVER:
 MXBW MUST BE AT LEAST  106
 
 SOLVING FOR HEAD 

 NO OUTPUT CONTROL FOR STRESS PERIOD    3   TIME STEP    7
 SOLVING FOR ZETA FOR LAYER     1 ZONE     2
 INSUFFICIENT MEMORY FOR DE4 SOLVER:
 MXBW MUST BE AT LEAST  106
 
 SOLVING FOR HEAD 

 NO OUTPUT CONTROL FOR STRESS PERIOD    3   TIME STEP    8
 SOLVING FOR ZETA FOR LAYER     1 ZONE     2
 INSUFFICIENT MEMORY FOR DE4 SOLVER:
 MXBW MUST BE AT LEAST  106
 
 SOLVING FOR HEAD 

 NO OUTPUT CONTROL FOR STRESS PERIOD    3   TIME STEP    9
 SOLVING FOR ZETA FOR LAYER     1 ZONE     2
 INSUFFICIENT MEMORY FOR DE4 SOLVER:
 MXBW MUST BE AT LEAST  106
 
 SOLVING FOR HEAD 

 NO OUTPUT CONTROL FOR STRESS PERIOD    3   TIME STEP   10
 SOLVING FOR ZETA FOR LAYER     1 ZONE     2
 INSUFFICIENT MEMORY FOR DE4 SOLVER:
 MXBW MUST BE AT LEAST  106
 
 SOLVING FOR HEAD 

 NO OUTPUT CONTROL FOR STRESS PERIOD    3   TIME STEP   11
 SOLVING FOR ZETA FOR LAYER     1 ZONE     2
 INSUFFICIENT MEMORY FOR DE4 SOLVER:
 MXBW MUST BE AT LEAST  106
 
 SOLVING FOR HEAD 

 NO OUTPUT CONTROL FOR STRESS PERIOD    3   TIME STEP   12
 SOLVING FOR ZETA FOR LAYER     1 ZONE     2
 INSUFFICIENT MEMORY FOR DE4 SOLVER:
 MXBW MUST BE AT LEAST  106
 
 SOLVING FOR HEAD 

 NO OUTPUT CONTROL FOR STRESS PERIOD    3   TIME STEP   13
 SOLVING FOR ZETA FOR LAYER     1 ZONE     2
 INSUFFICIENT MEMORY FOR DE4 SOLVER:
 MXBW MUST BE AT LEAST  106
 
 SOLVING FOR HEAD 

 NO OUTPUT CONTROL FOR STRESS PERIOD    3   TIME STEP   14
 SOLVING FOR ZETA FOR LAYER     1 ZONE     2
 INSUFFICIENT MEMORY FOR DE4 SOLVER:
 MXBW MUST BE AT LEAST  106
 
 SOLVING FOR HEAD 

 NO OUTPUT CONTROL FOR STRESS PERIOD    3   TIME STEP   15
 SOLVING FOR ZETA FOR LAYER     1 ZONE     2
 INSUFFICIENT MEMORY FOR DE4 SOLVER:
 MXBW MUST BE AT LEAST  106
 
 SOLVING FOR HEAD 

 NO OUTPUT CONTROL FOR STRESS PERIOD    3   TIME STEP   16
 SOLVING FOR ZETA FOR LAYER     1 ZONE     2
 INSUFFICIENT MEMORY FOR DE4 SOLVER:
 MXBW MUST BE AT LEAST  106
 
 SOLVING FOR HEAD 

 NO OUTPUT CONTROL FOR STRESS PERIOD    3   TIME STEP   17
 SOLVING FOR ZETA FOR LAYER     1 ZONE     2
 INSUFFICIENT MEMORY FOR DE4 SOLVER:
 MXBW MUST BE AT LEAST  106
 
 SOLVING FOR HEAD 

 NO OUTPUT CONTROL FOR STRESS PERIOD    3   TIME STEP   18
 SOLVING FOR ZETA FOR LAYER     1 ZONE     2
 INSUFFICIENT MEMORY FOR DE4 SOLVER:
 MXBW MUST BE AT LEAST  106
 
 SOLVING FOR HEAD 

 NO OUTPUT CONTROL FOR STRESS PERIOD    3   TIME STEP   19
 SOLVING FOR ZETA FOR LAYER     1 ZONE     2
 INSUFFICIENT MEMORY FOR DE4 SOLVER:
 MXBW MUST BE AT LEAST  106
 
 SOLVING FOR HEAD 

 NO OUTPUT CONTROL FOR STRESS PERIOD    3   TIME STEP   20
 SOLVING FOR ZETA FOR LAYER     1 ZONE     2
 INSUFFICIENT MEMORY FOR DE4 SOLVER:
 MXBW MUST BE AT LEAST  106
 
 SOLVING FOR HEAD 

 NO OUTPUT CONTROL FOR STRESS PERIOD    3   TIME STEP   21
 SOLVING FOR ZETA FOR LAYER     1 ZONE     2
 INSUFFICIENT MEMORY FOR DE4 SOLVER:
 MXBW MUST BE AT LEAST  106
 
 SOLVING FOR HEAD 

 NO OUTPUT CONTROL FOR STRESS PERIOD    3   TIME STEP   22
 SOLVING FOR ZETA FOR LAYER     1 ZONE     2
 INSUFFICIENT MEMORY FOR DE4 SOLVER:
 MXBW MUST BE AT LEAST  106
 
 SOLVING FOR HEAD 

 NO OUTPUT CONTROL FOR STRESS PERIOD    3   TIME STEP   23
 SOLVING FOR ZETA FOR LAYER     1 ZONE     2
 INSUFFICIENT MEMORY FOR DE4 SOLVER:
 MXBW MUST BE AT LEAST  106
 
 SOLVING FOR HEAD 

 NO OUTPUT CONTROL FOR STRESS PERIOD    3   TIME STEP   24
 SOLVING FOR ZETA FOR LAYER     1 ZONE     2
 INSUFFICIENT MEMORY FOR DE4 SOLVER:
 MXBW MUST BE AT LEAST  106
 
 SOLVING FOR HEAD 

 NO OUTPUT CONTROL FOR STRESS PERIOD    3   TIME STEP   25
 SOLVING FOR ZETA FOR LAYER     1 ZONE     2
 INSUFFICIENT MEMORY FOR DE4 SOLVER:
 MXBW MUST BE AT LEAST  106
 
 SOLVING FOR HEAD 

 NO OUTPUT CONTROL FOR STRESS PERIOD    3   TIME STEP   26
 SOLVING FOR ZETA FOR LAYER     1 ZONE     2
 INSUFFICIENT MEMORY FOR DE4 SOLVER:
 MXBW MUST BE AT LEAST  106
 
 SOLVING FOR HEAD 

 NO OUTPUT CONTROL FOR STRESS PERIOD    3   TIME STEP   27
 SOLVING FOR ZETA FOR LAYER     1 ZONE     2
 INSUFFICIENT MEMORY FOR DE4 SOLVER:
 MXBW MUST BE AT LEAST  106
 
 SOLVING FOR HEAD 

 NO OUTPUT CONTROL FOR STRESS PERIOD    3   TIME STEP   28
 SOLVING FOR ZETA FOR LAYER     1 ZONE     2
 INSUFFICIENT MEMORY FOR DE4 SOLVER:
 MXBW MUST BE AT LEAST  106
 
 SOLVING FOR HEAD 

 NO OUTPUT CONTROL FOR STRESS PERIOD    3   TIME STEP   29
 SOLVING FOR ZETA FOR LAYER     1 ZONE     2
 INSUFFICIENT MEMORY FOR DE4 SOLVER:
 MXBW MUST BE AT LEAST  106
 
 SOLVING FOR HEAD 

 NO OUTPUT CONTROL FOR STRESS PERIOD    3   TIME STEP   30
 SOLVING FOR ZETA FOR LAYER     1 ZONE     2
 INSUFFICIENT MEMORY FOR DE4 SOLVER:
 MXBW MUST BE AT LEAST  106
 
 SOLVING FOR HEAD 

 NO OUTPUT CONTROL FOR STRESS PERIOD    3   TIME STEP   31
 SOLVING FOR ZETA FOR LAYER     1 ZONE     2
 INSUFFICIENT MEMORY FOR DE4 SOLVER:
 MXBW MUST BE AT LEAST  106
 
 SOLVING FOR HEAD 

 NO OUTPUT CONTROL FOR STRESS PERIOD    3   TIME STEP   32
 SOLVING FOR ZETA FOR LAYER     1 ZONE     2
 INSUFFICIENT MEMORY FOR DE4 SOLVER:
 MXBW MUST BE AT LEAST  106
 
 SOLVING FOR HEAD 

 NO OUTPUT CONTROL FOR STRESS PERIOD    3   TIME STEP   33
 SOLVING FOR ZETA FOR LAYER     1 ZONE     2
 INSUFFICIENT MEMORY FOR DE4 SOLVER:
 MXBW MUST BE AT LEAST  106
 
 SOLVING FOR HEAD 

 NO OUTPUT CONTROL FOR STRESS PERIOD    3   TIME STEP   34
 SOLVING FOR ZETA FOR LAYER     1 ZONE     2
 INSUFFICIENT MEMORY FOR DE4 SOLVER:
 MXBW MUST BE AT LEAST  106
 
 SOLVING FOR HEAD 

 NO OUTPUT CONTROL FOR STRESS PERIOD    3   TIME STEP   35
 SOLVING FOR ZETA FOR LAYER     1 ZONE     2
 INSUFFICIENT MEMORY FOR DE4 SOLVER:
 MXBW MUST BE AT LEAST  106
 
 SOLVING FOR HEAD 

 NO OUTPUT CONTROL FOR STRESS PERIOD    3   TIME STEP   36
 SOLVING FOR ZETA FOR LAYER     1 ZONE     2
 INSUFFICIENT MEMORY FOR DE4 SOLVER:
 MXBW MUST BE AT LEAST  106
 
 SOLVING FOR HEAD 

 NO OUTPUT CONTROL FOR STRESS PERIOD    3   TIME STEP   37
 SOLVING FOR ZETA FOR LAYER     1 ZONE     2
 INSUFFICIENT MEMORY FOR DE4 SOLVER:
 MXBW MUST BE AT LEAST  106
 
 SOLVING FOR HEAD 

 NO OUTPUT CONTROL FOR STRESS PERIOD    3   TIME STEP   38
 SOLVING FOR ZETA FOR LAYER     1 ZONE     2
 INSUFFICIENT MEMORY FOR DE4 SOLVER:
 MXBW MUST BE AT LEAST  106
 
 SOLVING FOR HEAD 

 NO OUTPUT CONTROL FOR STRESS PERIOD    3   TIME STEP   39
 SOLVING FOR ZETA FOR LAYER     1 ZONE     2
 INSUFFICIENT MEMORY FOR DE4 SOLVER:
 MXBW MUST BE AT LEAST  106
 
 SOLVING FOR HEAD 

 NO OUTPUT CONTROL FOR STRESS PERIOD    3   TIME STEP   40
 SOLVING FOR ZETA FOR LAYER     1 ZONE     2
 INSUFFICIENT MEMORY FOR DE4 SOLVER:
 MXBW MUST BE AT LEAST  106
 
 SOLVING FOR HEAD 

 NO OUTPUT CONTROL FOR STRESS PERIOD    3   TIME STEP   41
 SOLVING FOR ZETA FOR LAYER     1 ZONE     2
 INSUFFICIENT MEMORY FOR DE4 SOLVER:
 MXBW MUST BE AT LEAST  106
 
 SOLVING FOR HEAD 

 NO OUTPUT CONTROL FOR STRESS PERIOD    3   TIME STEP   42
 SOLVING FOR ZETA FOR LAYER     1 ZONE     2
 INSUFFICIENT MEMORY FOR DE4 SOLVER:
 MXBW MUST BE AT LEAST  106
 
 SOLVING FOR HEAD 

 NO OUTPUT CONTROL FOR STRESS PERIOD    3   TIME STEP   43
 SOLVING FOR ZETA FOR LAYER     1 ZONE     2
 INSUFFICIENT MEMORY FOR DE4 SOLVER:
 MXBW MUST BE AT LEAST  106
 
 SOLVING FOR HEAD 

 NO OUTPUT CONTROL FOR STRESS PERIOD    3   TIME STEP   44
 SOLVING FOR ZETA FOR LAYER     1 ZONE     2
 INSUFFICIENT MEMORY FOR DE4 SOLVER:
 MXBW MUST BE AT LEAST  106
 
 SOLVING FOR HEAD 

 NO OUTPUT CONTROL FOR STRESS PERIOD    3   TIME STEP   45
 SOLVING FOR ZETA FOR LAYER     1 ZONE     2
 INSUFFICIENT MEMORY FOR DE4 SOLVER:
 MXBW MUST BE AT LEAST  106
 
 SOLVING FOR HEAD 

 NO OUTPUT CONTROL FOR STRESS PERIOD    3   TIME STEP   46
 SOLVING FOR ZETA FOR LAYER     1 ZONE     2
 INSUFFICIENT MEMORY FOR DE4 SOLVER:
 MXBW MUST BE AT LEAST  106
 
 SOLVING FOR HEAD 

 NO OUTPUT CONTROL FOR STRESS PERIOD    3   TIME STEP   47
 SOLVING FOR ZETA FOR LAYER     1 ZONE     2
 INSUFFICIENT MEMORY FOR DE4 SOLVER:
 MXBW MUST BE AT LEAST  106
 
 SOLVING FOR HEAD 

 NO OUTPUT CONTROL FOR STRESS PERIOD    3   TIME STEP   48
 SOLVING FOR ZETA FOR LAYER     1 ZONE     2
 INSUFFICIENT MEMORY FOR DE4 SOLVER:
 MXBW MUST BE AT LEAST  106
 
 SOLVING FOR HEAD 

 NO OUTPUT CONTROL FOR STRESS PERIOD    3   TIME STEP   49
 SOLVING FOR ZETA FOR LAYER     1 ZONE     2
 INSUFFICIENT MEMORY FOR DE4 SOLVER:
 MXBW MUST BE AT LEAST  106
 
 SOLVING FOR HEAD 

 NO OUTPUT CONTROL FOR STRESS PERIOD    3   TIME STEP   50
 SOLVING FOR ZETA FOR LAYER     1 ZONE     2
 INSUFFICIENT MEMORY FOR DE4 SOLVER:
 MXBW MUST BE AT LEAST  106
 
 SOLVING FOR HEAD 

 NO OUTPUT CONTROL FOR STRESS PERIOD    3   TIME STEP   51
 SOLVING FOR ZETA FOR LAYER     1 ZONE     2
 INSUFFICIENT MEMORY FOR DE4 SOLVER:
 MXBW MUST BE AT LEAST  106
 
 SOLVING FOR HEAD 

 NO OUTPUT CONTROL FOR STRESS PERIOD    3   TIME STEP   52
 SOLVING FOR ZETA FOR LAYER     1 ZONE     2
 INSUFFICIENT MEMORY FOR DE4 SOLVER:
 MXBW MUST BE AT LEAST  106
 
 SOLVING FOR HEAD 

 NO OUTPUT CONTROL FOR STRESS PERIOD    3   TIME STEP   53
 SOLVING FOR ZETA FOR LAYER     1 ZONE     2
 INSUFFICIENT MEMORY FOR DE4 SOLVER:
 MXBW MUST BE AT LEAST  106
 
 SOLVING FOR HEAD 

 NO OUTPUT CONTROL FOR STRESS PERIOD    3   TIME STEP   54
 SOLVING FOR ZETA FOR LAYER     1 ZONE     2
 INSUFFICIENT MEMORY FOR DE4 SOLVER:
 MXBW MUST BE AT LEAST  106
 
 SOLVING FOR HEAD 

 NO OUTPUT CONTROL FOR STRESS PERIOD    3   TIME STEP   55
 SOLVING FOR ZETA FOR LAYER     1 ZONE     2
 INSUFFICIENT MEMORY FOR DE4 SOLVER:
 MXBW MUST BE AT LEAST  106
 
 SOLVING FOR HEAD 

 NO OUTPUT CONTROL FOR STRESS PERIOD    3   TIME STEP   56
 SOLVING FOR ZETA FOR LAYER     1 ZONE     2
 INSUFFICIENT MEMORY FOR DE4 SOLVER:
 MXBW MUST BE AT LEAST  106
 
 SOLVING FOR HEAD 

 NO OUTPUT CONTROL FOR STRESS PERIOD    3   TIME STEP   57
 SOLVING FOR ZETA FOR LAYER     1 ZONE     2
 INSUFFICIENT MEMORY FOR DE4 SOLVER:
 MXBW MUST BE AT LEAST  106
 
 SOLVING FOR HEAD 

 NO OUTPUT CONTROL FOR STRESS PERIOD    3   TIME STEP   58
 SOLVING FOR ZETA FOR LAYER     1 ZONE     2
 INSUFFICIENT MEMORY FOR DE4 SOLVER:
 MXBW MUST BE AT LEAST  106
 
 SOLVING FOR HEAD 

 NO OUTPUT CONTROL FOR STRESS PERIOD    3   TIME STEP   59
 SOLVING FOR ZETA FOR LAYER     1 ZONE     2
 INSUFFICIENT MEMORY FOR DE4 SOLVER:
 MXBW MUST BE AT LEAST  106
 
 SOLVING FOR HEAD 

 OUTPUT CONTROL FOR STRESS PERIOD    3   TIME STEP   60
    PRINT BUDGET
    SAVE HEAD FOR ALL LAYERS
 SOLVING FOR ZETA FOR LAYER     1 ZONE     2
 INSUFFICIENT MEMORY FOR DE4 SOLVER:
 MXBW MUST BE AT LEAST  106
 UBUDSV SAVING "      ZETASRF  1" ON UNIT 55 AT TIME STEP 60, STRESS PERIOD    3


                      VOLUMETRIC SWI ZONE BUDGET FOR ENTIRE MODEL
                     AT END OF TIME STEP   60 IN STRESS PERIOD   3
                                      ZONE     1
  -----------------------------------------------------------------------------------

        CUMULATIVE VOLUMES      L**3       RATES FOR THIS TIME STEP      L**3/T
        ------------------                 ------------------------

              IN:                                      IN:
              ---                                      ---
             BOUNDARIES =   465695360.0000            BOUNDARIES =        5858.7690
          CONSTANT HEAD =           0.0000         CONSTANT HEAD =           0.0000
            ZONE CHANGE =     7965907.5000           ZONE CHANGE =           0.0000
       ZONE CHG TIP/TOE =    61564576.0000      ZONE CHG TIP/TOE =           0.0000
            ZONE MIXING =           0.0000           ZONE MIXING =           0.0000

               TOTAL IN =   535225856.0000              TOTAL IN =        5858.7690

             OUT:                                     OUT:
             ----                                     ----
             BOUNDARIES =   315532224.0000            BOUNDARIES =        5861.7627
          CONSTANT HEAD =           0.0000         CONSTANT HEAD =           0.0000
            ZONE CHANGE =    94032848.0000           ZONE CHANGE =           0.0000
       ZONE CHG TIP/TOE =     1242196.5000      ZONE CHG TIP/TOE =           0.0000
            ZONE MIXING =           0.0000           ZONE MIXING =           0.0000

              TOTAL OUT =   410807264.0000             TOTAL OUT =        5861.7627

               IN - OUT =   124418592.0000              IN - OUT =          -2.9937

    PERCENT DISCREPANCY =          26.30     PERCENT DISCREPANCY =          -0.05



                      VOLUMETRIC SWI ZONE BUDGET FOR ENTIRE MODEL
                     AT END OF TIME STEP   60 IN STRESS PERIOD   3
                                      ZONE     2
  -----------------------------------------------------------------------------------

        CUMULATIVE VOLUMES      L**3       RATES FOR THIS TIME STEP      L**3/T
        ------------------                 ------------------------

              IN:                                      IN:
              ---                                      ---
             BOUNDARIES =     1038140.3750            BOUNDARIES =           2.9940
          CONSTANT HEAD =           0.0000         CONSTANT HEAD =           0.0000
            ZONE CHANGE =    32763186.0000           ZONE CHANGE =           0.0000
       ZONE CHG TIP/TOE =    78124024.0000      ZONE CHG TIP/TOE =           0.0000
            ZONE MIXING =           0.0000           ZONE MIXING =           0.0000

               TOTAL IN =   111925352.0000              TOTAL IN =           2.9940

             OUT:                                     OUT:
             ----                                     ----
             BOUNDARIES =   151210928.0000            BOUNDARIES =       1.5712E-38
          CONSTANT HEAD =           0.0000         CONSTANT HEAD =           0.0000
            ZONE CHANGE =    84847720.0000           ZONE CHANGE =           0.0000
       ZONE CHG TIP/TOE =      294963.1250      ZONE CHG TIP/TOE =           0.0000
            ZONE MIXING =           0.0000           ZONE MIXING =           0.0000

              TOTAL OUT =   236353616.0000             TOTAL OUT =       1.5712E-38

               IN - OUT =  -124428264.0000              IN - OUT =           2.9940

    PERCENT DISCREPANCY =         -71.45     PERCENT DISCREPANCY =         200.00


 HEAD WILL BE SAVED ON UNIT   51 AT END OF TIME STEP   60, STRESS PERIOD    3
1
  VOLUMETRIC BUDGET FOR ENTIRE MODEL AT END OF TIME STEP   60, STRESS PERIOD   3
  ------------------------------------------------------------------------------

     CUMULATIVE VOLUMES      L**3       RATES FOR THIS TIME STEP      L**3/T
     ------------------                 ------------------------

           IN:                                      IN:
           ---                                      ---
             STORAGE =           0.0000               STORAGE =           0.0000
       CONSTANT HEAD =           0.0000         CONSTANT HEAD =           0.0000
          SWIADDTOCH =           0.0000            SWIADDTOCH =           0.0000
     HEAD DEP BOUNDS =          16.8080       HEAD DEP BOUNDS =       2.1070E-04
            RECHARGE =   466739840.0000              RECHARGE =        5861.7627

            TOTAL IN =   466739872.0000              TOTAL IN =        5861.7627

          OUT:                                     OUT:
          ----                                     ----
             STORAGE =           0.0000               STORAGE =           0.0000
       CONSTANT HEAD =           0.0000         CONSTANT HEAD =           0.0000
          SWIADDTOCH =           0.0000            SWIADDTOCH =           0.0000
     HEAD DEP BOUNDS =   466739840.0000       HEAD DEP BOUNDS =        5861.7627
            RECHARGE =           0.0000              RECHARGE =           0.0000

           TOTAL OUT =   466739840.0000             TOTAL OUT =        5861.7627

            IN - OUT =          32.0000              IN - OUT =           0.0000

 PERCENT DISCREPANCY =           0.00     PERCENT DISCREPANCY =           0.00






         TIME SUMMARY AT END OF TIME STEP   60 IN STRESS PERIOD    3
                    SECONDS     MINUTES      HOURS       DAYS        YEARS
                    -----------------------------------------------------------
   TIME STEP LENGTH 3.15576E+06  52596.      876.60      36.525     0.10000    
 STRESS PERIOD TIME 1.89346E+08 3.15576E+06  52596.      2191.5      6.0000    
         TOTAL TIME 6.87955E+09 1.14659E+08 1.91099E+06  79624.      218.00    
1
 
 SOLVING FOR HEAD 

 NO OUTPUT CONTROL FOR STRESS PERIOD    3   TIME STEP   61
 SOLVING FOR ZETA FOR LAYER     1 ZONE     2
 INSUFFICIENT MEMORY FOR DE4 SOLVER:
 MXBW MUST BE AT LEAST  106
 
 SOLVING FOR HEAD 

 NO OUTPUT CONTROL FOR STRESS PERIOD    3   TIME STEP   62
 SOLVING FOR ZETA FOR LAYER     1 ZONE     2
 INSUFFICIENT MEMORY FOR DE4 SOLVER:
 MXBW MUST BE AT LEAST  106
 
 SOLVING FOR HEAD 

 NO OUTPUT CONTROL FOR STRESS PERIOD    3   TIME STEP   63
 SOLVING FOR ZETA FOR LAYER     1 ZONE     2
 INSUFFICIENT MEMORY FOR DE4 SOLVER:
 MXBW MUST BE AT LEAST  106
 
 SOLVING FOR HEAD 

 NO OUTPUT CONTROL FOR STRESS PERIOD    3   TIME STEP   64
 SOLVING FOR ZETA FOR LAYER     1 ZONE     2
 INSUFFICIENT MEMORY FOR DE4 SOLVER:
 MXBW MUST BE AT LEAST  106
 
 SOLVING FOR HEAD 

 NO OUTPUT CONTROL FOR STRESS PERIOD    3   TIME STEP   65
 SOLVING FOR ZETA FOR LAYER     1 ZONE     2
 INSUFFICIENT MEMORY FOR DE4 SOLVER:
 MXBW MUST BE AT LEAST  106
 
 SOLVING FOR HEAD 

 NO OUTPUT CONTROL FOR STRESS PERIOD    3   TIME STEP   66
 SOLVING FOR ZETA FOR LAYER     1 ZONE     2
 INSUFFICIENT MEMORY FOR DE4 SOLVER:
 MXBW MUST BE AT LEAST  106
 
 SOLVING FOR HEAD 

 NO OUTPUT CONTROL FOR STRESS PERIOD    3   TIME STEP   67
 SOLVING FOR ZETA FOR LAYER     1 ZONE     2
 INSUFFICIENT MEMORY FOR DE4 SOLVER:
 MXBW MUST BE AT LEAST  106
 
 SOLVING FOR HEAD 

 NO OUTPUT CONTROL FOR STRESS PERIOD    3   TIME STEP   68
 SOLVING FOR ZETA FOR LAYER     1 ZONE     2
 INSUFFICIENT MEMORY FOR DE4 SOLVER:
 MXBW MUST BE AT LEAST  106
 
 SOLVING FOR HEAD 

 NO OUTPUT CONTROL FOR STRESS PERIOD    3   TIME STEP   69
 SOLVING FOR ZETA FOR LAYER     1 ZONE     2
 INSUFFICIENT MEMORY FOR DE4 SOLVER:
 MXBW MUST BE AT LEAST  106
 
 SOLVING FOR HEAD 

 NO OUTPUT CONTROL FOR STRESS PERIOD    3   TIME STEP   70
 SOLVING FOR ZETA FOR LAYER     1 ZONE     2
 INSUFFICIENT MEMORY FOR DE4 SOLVER:
 MXBW MUST BE AT LEAST  106
 
 SOLVING FOR HEAD 

 NO OUTPUT CONTROL FOR STRESS PERIOD    3   TIME STEP   71
 SOLVING FOR ZETA FOR LAYER     1 ZONE     2
 INSUFFICIENT MEMORY FOR DE4 SOLVER:
 MXBW MUST BE AT LEAST  106
 
 SOLVING FOR HEAD 

 NO OUTPUT CONTROL FOR STRESS PERIOD    3   TIME STEP   72
 SOLVING FOR ZETA FOR LAYER     1 ZONE     2
 INSUFFICIENT MEMORY FOR DE4 SOLVER:
 MXBW MUST BE AT LEAST  106
 
 SOLVING FOR HEAD 

 NO OUTPUT CONTROL FOR STRESS PERIOD    3   TIME STEP   73
 SOLVING FOR ZETA FOR LAYER     1 ZONE     2
 INSUFFICIENT MEMORY FOR DE4 SOLVER:
 MXBW MUST BE AT LEAST  106
 
 SOLVING FOR HEAD 

 NO OUTPUT CONTROL FOR STRESS PERIOD    3   TIME STEP   74
 SOLVING FOR ZETA FOR LAYER     1 ZONE     2
 INSUFFICIENT MEMORY FOR DE4 SOLVER:
 MXBW MUST BE AT LEAST  106
 
 SOLVING FOR HEAD 

 NO OUTPUT CONTROL FOR STRESS PERIOD    3   TIME STEP   75
 SOLVING FOR ZETA FOR LAYER     1 ZONE     2
 INSUFFICIENT MEMORY FOR DE4 SOLVER:
 MXBW MUST BE AT LEAST  106
 
 SOLVING FOR HEAD 

 NO OUTPUT CONTROL FOR STRESS PERIOD    3   TIME STEP   76
 SOLVING FOR ZETA FOR LAYER     1 ZONE     2
 INSUFFICIENT MEMORY FOR DE4 SOLVER:
 MXBW MUST BE AT LEAST  106
 
 SOLVING FOR HEAD 

 NO OUTPUT CONTROL FOR STRESS PERIOD    3   TIME STEP   77
 SOLVING FOR ZETA FOR LAYER     1 ZONE     2
 INSUFFICIENT MEMORY FOR DE4 SOLVER:
 MXBW MUST BE AT LEAST  106
 
 SOLVING FOR HEAD 

 NO OUTPUT CONTROL FOR STRESS PERIOD    3   TIME STEP   78
 SOLVING FOR ZETA FOR LAYER     1 ZONE     2
 INSUFFICIENT MEMORY FOR DE4 SOLVER:
 MXBW MUST BE AT LEAST  106
 
 SOLVING FOR HEAD 

 NO OUTPUT CONTROL FOR STRESS PERIOD    3   TIME STEP   79
 SOLVING FOR ZETA FOR LAYER     1 ZONE     2
 INSUFFICIENT MEMORY FOR DE4 SOLVER:
 MXBW MUST BE AT LEAST  106
 
 SOLVING FOR HEAD 

 NO OUTPUT CONTROL FOR STRESS PERIOD    3   TIME STEP   80
 SOLVING FOR ZETA FOR LAYER     1 ZONE     2
 INSUFFICIENT MEMORY FOR DE4 SOLVER:
 MXBW MUST BE AT LEAST  106
 
 SOLVING FOR HEAD 

 NO OUTPUT CONTROL FOR STRESS PERIOD    3   TIME STEP   81
 SOLVING FOR ZETA FOR LAYER     1 ZONE     2
 INSUFFICIENT MEMORY FOR DE4 SOLVER:
 MXBW MUST BE AT LEAST  106
 
 SOLVING FOR HEAD 

 NO OUTPUT CONTROL FOR STRESS PERIOD    3   TIME STEP   82
 SOLVING FOR ZETA FOR LAYER     1 ZONE     2
 INSUFFICIENT MEMORY FOR DE4 SOLVER:
 MXBW MUST BE AT LEAST  106
 
 SOLVING FOR HEAD 

 NO OUTPUT CONTROL FOR STRESS PERIOD    3   TIME STEP   83
 SOLVING FOR ZETA FOR LAYER     1 ZONE     2
 INSUFFICIENT MEMORY FOR DE4 SOLVER:
 MXBW MUST BE AT LEAST  106
 
 SOLVING FOR HEAD 

 NO OUTPUT CONTROL FOR STRESS PERIOD    3   TIME STEP   84
 SOLVING FOR ZETA FOR LAYER     1 ZONE     2
 INSUFFICIENT MEMORY FOR DE4 SOLVER:
 MXBW MUST BE AT LEAST  106
 
 SOLVING FOR HEAD 

 NO OUTPUT CONTROL FOR STRESS PERIOD    3   TIME STEP   85
 SOLVING FOR ZETA FOR LAYER     1 ZONE     2
 INSUFFICIENT MEMORY FOR DE4 SOLVER:
 MXBW MUST BE AT LEAST  106
 
 SOLVING FOR HEAD 

 NO OUTPUT CONTROL FOR STRESS PERIOD    3   TIME STEP   86
 SOLVING FOR ZETA FOR LAYER     1 ZONE     2
 INSUFFICIENT MEMORY FOR DE4 SOLVER:
 MXBW MUST BE AT LEAST  106
 
 SOLVING FOR HEAD 

 NO OUTPUT CONTROL FOR STRESS PERIOD    3   TIME STEP   87
 SOLVING FOR ZETA FOR LAYER     1 ZONE     2
 INSUFFICIENT MEMORY FOR DE4 SOLVER:
 MXBW MUST BE AT LEAST  106
 
 SOLVING FOR HEAD 

 NO OUTPUT CONTROL FOR STRESS PERIOD    3   TIME STEP   88
 SOLVING FOR ZETA FOR LAYER     1 ZONE     2
 INSUFFICIENT MEMORY FOR DE4 SOLVER:
 MXBW MUST BE AT LEAST  106
 
 SOLVING FOR HEAD 

 NO OUTPUT CONTROL FOR STRESS PERIOD    3   TIME STEP   89
 SOLVING FOR ZETA FOR LAYER     1 ZONE     2
 INSUFFICIENT MEMORY FOR DE4 SOLVER:
 MXBW MUST BE AT LEAST  106
 
 SOLVING FOR HEAD 

 NO OUTPUT CONTROL FOR STRESS PERIOD    3   TIME STEP   90
 SOLVING FOR ZETA FOR LAYER     1 ZONE     2
 INSUFFICIENT MEMORY FOR DE4 SOLVER:
 MXBW MUST BE AT LEAST  106
 
 SOLVING FOR HEAD 

 NO OUTPUT CONTROL FOR STRESS PERIOD    3   TIME STEP   91
 SOLVING FOR ZETA FOR LAYER     1 ZONE     2
 INSUFFICIENT MEMORY FOR DE4 SOLVER:
 MXBW MUST BE AT LEAST  106
 
 SOLVING FOR HEAD 

 NO OUTPUT CONTROL FOR STRESS PERIOD    3   TIME STEP   92
 SOLVING FOR ZETA FOR LAYER     1 ZONE     2
 INSUFFICIENT MEMORY FOR DE4 SOLVER:
 MXBW MUST BE AT LEAST  106
 
 SOLVING FOR HEAD 

 NO OUTPUT CONTROL FOR STRESS PERIOD    3   TIME STEP   93
 SOLVING FOR ZETA FOR LAYER     1 ZONE     2
 INSUFFICIENT MEMORY FOR DE4 SOLVER:
 MXBW MUST BE AT LEAST  106
 
 SOLVING FOR HEAD 

 NO OUTPUT CONTROL FOR STRESS PERIOD    3   TIME STEP   94
 SOLVING FOR ZETA FOR LAYER     1 ZONE     2
 INSUFFICIENT MEMORY FOR DE4 SOLVER:
 MXBW MUST BE AT LEAST  106
 
 SOLVING FOR HEAD 

 NO OUTPUT CONTROL FOR STRESS PERIOD    3   TIME STEP   95
 SOLVING FOR ZETA FOR LAYER     1 ZONE     2
 INSUFFICIENT MEMORY FOR DE4 SOLVER:
 MXBW MUST BE AT LEAST  106
 
 SOLVING FOR HEAD 

 NO OUTPUT CONTROL FOR STRESS PERIOD    3   TIME STEP   96
 SOLVING FOR ZETA FOR LAYER     1 ZONE     2
 INSUFFICIENT MEMORY FOR DE4 SOLVER:
 MXBW MUST BE AT LEAST  106
 
 SOLVING FOR HEAD 

 NO OUTPUT CONTROL FOR STRESS PERIOD    3   TIME STEP   97
 SOLVING FOR ZETA FOR LAYER     1 ZONE     2
 INSUFFICIENT MEMORY FOR DE4 SOLVER:
 MXBW MUST BE AT LEAST  106
 
 SOLVING FOR HEAD 

 NO OUTPUT CONTROL FOR STRESS PERIOD    3   TIME STEP   98
 SOLVING FOR ZETA FOR LAYER     1 ZONE     2
 INSUFFICIENT MEMORY FOR DE4 SOLVER:
 MXBW MUST BE AT LEAST  106
 
 SOLVING FOR HEAD 

 NO OUTPUT CONTROL FOR STRESS PERIOD    3   TIME STEP   99
 SOLVING FOR ZETA FOR LAYER     1 ZONE     2
 INSUFFICIENT MEMORY FOR DE4 SOLVER:
 MXBW MUST BE AT LEAST  106
 
 SOLVING FOR HEAD 

 NO OUTPUT CONTROL FOR STRESS PERIOD    3   TIME STEP  100
 SOLVING FOR ZETA FOR LAYER     1 ZONE     2
 INSUFFICIENT MEMORY FOR DE4 SOLVER:
 MXBW MUST BE AT LEAST  106
 
 SOLVING FOR HEAD 

 NO OUTPUT CONTROL FOR STRESS PERIOD    3   TIME STEP  101
 SOLVING FOR ZETA FOR LAYER     1 ZONE     2
 INSUFFICIENT MEMORY FOR DE4 SOLVER:
 MXBW MUST BE AT LEAST  106
 
 SOLVING FOR HEAD 

 NO OUTPUT CONTROL FOR STRESS PERIOD    3   TIME STEP  102
 SOLVING FOR ZETA FOR LAYER     1 ZONE     2
 INSUFFICIENT MEMORY FOR DE4 SOLVER:
 MXBW MUST BE AT LEAST  106
 
 SOLVING FOR HEAD 

 NO OUTPUT CONTROL FOR STRESS PERIOD    3   TIME STEP  103
 SOLVING FOR ZETA FOR LAYER     1 ZONE     2
 INSUFFICIENT MEMORY FOR DE4 SOLVER:
 MXBW MUST BE AT LEAST  106
 
 SOLVING FOR HEAD 

 NO OUTPUT CONTROL FOR STRESS PERIOD    3   TIME STEP  104
 SOLVING FOR ZETA FOR LAYER     1 ZONE     2
 INSUFFICIENT MEMORY FOR DE4 SOLVER:
 MXBW MUST BE AT LEAST  106
 
 SOLVING FOR HEAD 

 NO OUTPUT CONTROL FOR STRESS PERIOD    3   TIME STEP  105
 SOLVING FOR ZETA FOR LAYER     1 ZONE     2
 INSUFFICIENT MEMORY FOR DE4 SOLVER:
 MXBW MUST BE AT LEAST  106
 
 SOLVING FOR HEAD 

 NO OUTPUT CONTROL FOR STRESS PERIOD    3   TIME STEP  106
 SOLVING FOR ZETA FOR LAYER     1 ZONE     2
 INSUFFICIENT MEMORY FOR DE4 SOLVER:
 MXBW MUST BE AT LEAST  106
 
 SOLVING FOR HEAD 

 NO OUTPUT CONTROL FOR STRESS PERIOD    3   TIME STEP  107
 SOLVING FOR ZETA FOR LAYER     1 ZONE     2
 INSUFFICIENT MEMORY FOR DE4 SOLVER:
 MXBW MUST BE AT LEAST  106
 
 SOLVING FOR HEAD 

 NO OUTPUT CONTROL FOR STRESS PERIOD    3   TIME STEP  108
 SOLVING FOR ZETA FOR LAYER     1 ZONE     2
 INSUFFICIENT MEMORY FOR DE4 SOLVER:
 MXBW MUST BE AT LEAST  106
 
 SOLVING FOR HEAD 

 NO OUTPUT CONTROL FOR STRESS PERIOD    3   TIME STEP  109
 SOLVING FOR ZETA FOR LAYER     1 ZONE     2
 INSUFFICIENT MEMORY FOR DE4 SOLVER:
 MXBW MUST BE AT LEAST  106
 
 SOLVING FOR HEAD 

 NO OUTPUT CONTROL FOR STRESS PERIOD    3   TIME STEP  110
 SOLVING FOR ZETA FOR LAYER     1 ZONE     2
 INSUFFICIENT MEMORY FOR DE4 SOLVER:
 MXBW MUST BE AT LEAST  106
 
 SOLVING FOR HEAD 

 NO OUTPUT CONTROL FOR STRESS PERIOD    3   TIME STEP  111
 SOLVING FOR ZETA FOR LAYER     1 ZONE     2
 INSUFFICIENT MEMORY FOR DE4 SOLVER:
 MXBW MUST BE AT LEAST  106
 
 SOLVING FOR HEAD 

 NO OUTPUT CONTROL FOR STRESS PERIOD    3   TIME STEP  112
 SOLVING FOR ZETA FOR LAYER     1 ZONE     2
 INSUFFICIENT MEMORY FOR DE4 SOLVER:
 MXBW MUST BE AT LEAST  106
 
 SOLVING FOR HEAD 

 NO OUTPUT CONTROL FOR STRESS PERIOD    3   TIME STEP  113
 SOLVING FOR ZETA FOR LAYER     1 ZONE     2
 INSUFFICIENT MEMORY FOR DE4 SOLVER:
 MXBW MUST BE AT LEAST  106
 
 SOLVING FOR HEAD 

 NO OUTPUT CONTROL FOR STRESS PERIOD    3   TIME STEP  114
 SOLVING FOR ZETA FOR LAYER     1 ZONE     2
 INSUFFICIENT MEMORY FOR DE4 SOLVER:
 MXBW MUST BE AT LEAST  106
 
 SOLVING FOR HEAD 

 NO OUTPUT CONTROL FOR STRESS PERIOD    3   TIME STEP  115
 SOLVING FOR ZETA FOR LAYER     1 ZONE     2
 INSUFFICIENT MEMORY FOR DE4 SOLVER:
 MXBW MUST BE AT LEAST  106
 
 SOLVING FOR HEAD 

 NO OUTPUT CONTROL FOR STRESS PERIOD    3   TIME STEP  116
 SOLVING FOR ZETA FOR LAYER     1 ZONE     2
 INSUFFICIENT MEMORY FOR DE4 SOLVER:
 MXBW MUST BE AT LEAST  106
 
 SOLVING FOR HEAD 

 NO OUTPUT CONTROL FOR STRESS PERIOD    3   TIME STEP  117
 SOLVING FOR ZETA FOR LAYER     1 ZONE     2
 INSUFFICIENT MEMORY FOR DE4 SOLVER:
 MXBW MUST BE AT LEAST  106
 
 SOLVING FOR HEAD 

 NO OUTPUT CONTROL FOR STRESS PERIOD    3   TIME STEP  118
 SOLVING FOR ZETA FOR LAYER     1 ZONE     2
 INSUFFICIENT MEMORY FOR DE4 SOLVER:
 MXBW MUST BE AT LEAST  106
 
 SOLVING FOR HEAD 

 NO OUTPUT CONTROL FOR STRESS PERIOD    3   TIME STEP  119
 SOLVING FOR ZETA FOR LAYER     1 ZONE     2
 INSUFFICIENT MEMORY FOR DE4 SOLVER:
 MXBW MUST BE AT LEAST  106
 
 SOLVING FOR HEAD 

 OUTPUT CONTROL FOR STRESS PERIOD    3   TIME STEP  120
    PRINT BUDGET
    SAVE HEAD FOR ALL LAYERS
 SOLVING FOR ZETA FOR LAYER     1 ZONE     2
 INSUFFICIENT MEMORY FOR DE4 SOLVER:
 MXBW MUST BE AT LEAST  106
 UBUDSV SAVING "      ZETASRF  1" ON UNIT 55 AT TIME STEP120, STRESS PERIOD    3


                      VOLUMETRIC SWI ZONE BUDGET FOR ENTIRE MODEL
                     AT END OF TIME STEP  120 IN STRESS PERIOD   3
                                      ZONE     1
  -----------------------------------------------------------------------------------

        CUMULATIVE VOLUMES      L**3       RATES FOR THIS TIME STEP      L**3/T
        ------------------                 ------------------------

              IN:                                      IN:
              ---                                      ---
             BOUNDARIES =   478534400.0000            BOUNDARIES =        5858.7690
          CONSTANT HEAD =           0.0000         CONSTANT HEAD =           0.0000
            ZONE CHANGE =     7965907.5000           ZONE CHANGE =           0.0000
       ZONE CHG TIP/TOE =    61564576.0000      ZONE CHG TIP/TOE =           0.0000
            ZONE MIXING =           0.0000           ZONE MIXING =           0.0000

               TOTAL IN =   548064896.0000              TOTAL IN =        5858.7690

             OUT:                                     OUT:
             ----                                     ----
             BOUNDARIES =   328378944.0000            BOUNDARIES =        5861.7627
          CONSTANT HEAD =           0.0000         CONSTANT HEAD =           0.0000
            ZONE CHANGE =    94032848.0000           ZONE CHANGE =           0.0000
       ZONE CHG TIP/TOE =     1242196.5000      ZONE CHG TIP/TOE =           0.0000
            ZONE MIXING =           0.0000           ZONE MIXING =           0.0000

              TOTAL OUT =   423653984.0000             TOTAL OUT =        5861.7627

               IN - OUT =   124410912.0000              IN - OUT =          -2.9937

    PERCENT DISCREPANCY =          25.61     PERCENT DISCREPANCY =          -0.05



                      VOLUMETRIC SWI ZONE BUDGET FOR ENTIRE MODEL
                     AT END OF TIME STEP  120 IN STRESS PERIOD   3
                                      ZONE     2
  -----------------------------------------------------------------------------------

        CUMULATIVE VOLUMES      L**3       RATES FOR THIS TIME STEP      L**3/T
        ------------------                 ------------------------

              IN:                                      IN:
              ---                                      ---
             BOUNDARIES =     1044702.8750            BOUNDARIES =           2.9940
          CONSTANT HEAD =           0.0000         CONSTANT HEAD =           0.0000
            ZONE CHANGE =    32763186.0000           ZONE CHANGE =           0.0000
       ZONE CHG TIP/TOE =    78124024.0000      ZONE CHG TIP/TOE =           0.0000
            ZONE MIXING =           0.0000           ZONE MIXING =           0.0000

               TOTAL IN =   111931912.0000              TOTAL IN =           2.9940

             OUT:                                     OUT:
             ----                                     ----
             BOUNDARIES =   151210928.0000            BOUNDARIES =       1.5712E-38
          CONSTANT HEAD =           0.0000         CONSTANT HEAD =           0.0000
            ZONE CHANGE =    84847720.0000           ZONE CHANGE =           0.0000
       ZONE CHG TIP/TOE =      294963.1250      ZONE CHG TIP/TOE =           0.0000
            ZONE MIXING =           0.0000           ZONE MIXING =           0.0000

              TOTAL OUT =   236353616.0000             TOTAL OUT =       1.5712E-38

               IN - OUT =  -124421704.0000              IN - OUT =           2.9940

    PERCENT DISCREPANCY =         -71.45     PERCENT DISCREPANCY =         200.00


 HEAD WILL BE SAVED ON UNIT   51 AT END OF TIME STEP  120, STRESS PERIOD    3
1
  VOLUMETRIC BUDGET FOR ENTIRE MODEL AT END OF TIME STEP  120, STRESS PERIOD   3
  ------------------------------------------------------------------------------

     CUMULATIVE VOLUMES      L**3       RATES FOR THIS TIME STEP      L**3/T
     ------------------                 ------------------------

           IN:                                      IN:
           ---                                      ---
             STORAGE =           0.0000               STORAGE =           0.0000
       CONSTANT HEAD =           0.0000         CONSTANT HEAD =           0.0000
          SWIADDTOCH =           0.0000            SWIADDTOCH =           0.0000
     HEAD DEP BOUNDS =          17.2697       HEAD DEP BOUNDS =       2.1070E-04
            RECHARGE =   479586560.0000              RECHARGE =        5861.7627

            TOTAL IN =   479586592.0000              TOTAL IN =        5861.7627

          OUT:                                     OUT:
          ----                                     ----
             STORAGE =           0.0000               STORAGE =           0.0000
       CONSTANT HEAD =           0.0000         CONSTANT HEAD =           0.0000
          SWIADDTOCH =           0.0000            SWIADDTOCH =           0.0000
     HEAD DEP BOUNDS =   479586560.0000       HEAD DEP BOUNDS =        5861.7627
            RECHARGE =           0.0000              RECHARGE =           0.0000

           TOTAL OUT =   479586560.0000             TOTAL OUT =        5861.7627

            IN - OUT =          32.0000              IN - OUT =           0.0000

 PERCENT DISCREPANCY =           0.00     PERCENT DISCREPANCY =           0.00






         TIME SUMMARY AT END OF TIME STEP  120 IN STRESS PERIOD    3
                    SECONDS     MINUTES      HOURS       DAYS        YEARS
                    -----------------------------------------------------------
   TIME STEP LENGTH 3.15576E+06  52596.      876.60      36.525     0.10000    
 STRESS PERIOD TIME 3.78691E+08 6.31151E+06 1.05192E+05  4383.0      12.000    
         TOTAL TIME 7.06888E+09 1.17815E+08 1.96358E+06  81816.      224.00    
1
 
 SOLVING FOR HEAD 

 NO OUTPUT CONTROL FOR STRESS PERIOD    3   TIME STEP  121
 SOLVING FOR ZETA FOR LAYER     1 ZONE     2
 INSUFFICIENT MEMORY FOR DE4 SOLVER:
 MXBW MUST BE AT LEAST  106
 
 SOLVING FOR HEAD 

 NO OUTPUT CONTROL FOR STRESS PERIOD    3   TIME STEP  122
 SOLVING FOR ZETA FOR LAYER     1 ZONE     2
 INSUFFICIENT MEMORY FOR DE4 SOLVER:
 MXBW MUST BE AT LEAST  106
 
 SOLVING FOR HEAD 

 NO OUTPUT CONTROL FOR STRESS PERIOD    3   TIME STEP  123
 SOLVING FOR ZETA FOR LAYER     1 ZONE     2
 INSUFFICIENT MEMORY FOR DE4 SOLVER:
 MXBW MUST BE AT LEAST  106
 
 SOLVING FOR HEAD 

 NO OUTPUT CONTROL FOR STRESS PERIOD    3   TIME STEP  124
 SOLVING FOR ZETA FOR LAYER     1 ZONE     2
 INSUFFICIENT MEMORY FOR DE4 SOLVER:
 MXBW MUST BE AT LEAST  106
 
 SOLVING FOR HEAD 

 NO OUTPUT CONTROL FOR STRESS PERIOD    3   TIME STEP  125
 SOLVING FOR ZETA FOR LAYER     1 ZONE     2
 INSUFFICIENT MEMORY FOR DE4 SOLVER:
 MXBW MUST BE AT LEAST  106
 
 SOLVING FOR HEAD 

 NO OUTPUT CONTROL FOR STRESS PERIOD    3   TIME STEP  126
 SOLVING FOR ZETA FOR LAYER     1 ZONE     2
 INSUFFICIENT MEMORY FOR DE4 SOLVER:
 MXBW MUST BE AT LEAST  106
 
 SOLVING FOR HEAD 

 NO OUTPUT CONTROL FOR STRESS PERIOD    3   TIME STEP  127
 SOLVING FOR ZETA FOR LAYER     1 ZONE     2
 INSUFFICIENT MEMORY FOR DE4 SOLVER:
 MXBW MUST BE AT LEAST  106
 
 SOLVING FOR HEAD 

 NO OUTPUT CONTROL FOR STRESS PERIOD    3   TIME STEP  128
 SOLVING FOR ZETA FOR LAYER     1 ZONE     2
 INSUFFICIENT MEMORY FOR DE4 SOLVER:
 MXBW MUST BE AT LEAST  106
 
 SOLVING FOR HEAD 

 NO OUTPUT CONTROL FOR STRESS PERIOD    3   TIME STEP  129
 SOLVING FOR ZETA FOR LAYER     1 ZONE     2
 INSUFFICIENT MEMORY FOR DE4 SOLVER:
 MXBW MUST BE AT LEAST  106
 
 SOLVING FOR HEAD 

 NO OUTPUT CONTROL FOR STRESS PERIOD    3   TIME STEP  130
 SOLVING FOR ZETA FOR LAYER     1 ZONE     2
 INSUFFICIENT MEMORY FOR DE4 SOLVER:
 MXBW MUST BE AT LEAST  106
 
 SOLVING FOR HEAD 

 NO OUTPUT CONTROL FOR STRESS PERIOD    3   TIME STEP  131
 SOLVING FOR ZETA FOR LAYER     1 ZONE     2
 INSUFFICIENT MEMORY FOR DE4 SOLVER:
 MXBW MUST BE AT LEAST  106
 
 SOLVING FOR HEAD 

 NO OUTPUT CONTROL FOR STRESS PERIOD    3   TIME STEP  132
 SOLVING FOR ZETA FOR LAYER     1 ZONE     2
 INSUFFICIENT MEMORY FOR DE4 SOLVER:
 MXBW MUST BE AT LEAST  106
 
 SOLVING FOR HEAD 

 NO OUTPUT CONTROL FOR STRESS PERIOD    3   TIME STEP  133
 SOLVING FOR ZETA FOR LAYER     1 ZONE     2
 INSUFFICIENT MEMORY FOR DE4 SOLVER:
 MXBW MUST BE AT LEAST  106
 
 SOLVING FOR HEAD 

 NO OUTPUT CONTROL FOR STRESS PERIOD    3   TIME STEP  134
 SOLVING FOR ZETA FOR LAYER     1 ZONE     2
 INSUFFICIENT MEMORY FOR DE4 SOLVER:
 MXBW MUST BE AT LEAST  106
 
 SOLVING FOR HEAD 

 NO OUTPUT CONTROL FOR STRESS PERIOD    3   TIME STEP  135
 SOLVING FOR ZETA FOR LAYER     1 ZONE     2
 INSUFFICIENT MEMORY FOR DE4 SOLVER:
 MXBW MUST BE AT LEAST  106
 
 SOLVING FOR HEAD 

 NO OUTPUT CONTROL FOR STRESS PERIOD    3   TIME STEP  136
 SOLVING FOR ZETA FOR LAYER     1 ZONE     2
 INSUFFICIENT MEMORY FOR DE4 SOLVER:
 MXBW MUST BE AT LEAST  106
 
 SOLVING FOR HEAD 

 NO OUTPUT CONTROL FOR STRESS PERIOD    3   TIME STEP  137
 SOLVING FOR ZETA FOR LAYER     1 ZONE     2
 INSUFFICIENT MEMORY FOR DE4 SOLVER:
 MXBW MUST BE AT LEAST  106
 
 SOLVING FOR HEAD 

 NO OUTPUT CONTROL FOR STRESS PERIOD    3   TIME STEP  138
 SOLVING FOR ZETA FOR LAYER     1 ZONE     2
 INSUFFICIENT MEMORY FOR DE4 SOLVER:
 MXBW MUST BE AT LEAST  106
 
 SOLVING FOR HEAD 

 NO OUTPUT CONTROL FOR STRESS PERIOD    3   TIME STEP  139
 SOLVING FOR ZETA FOR LAYER     1 ZONE     2
 INSUFFICIENT MEMORY FOR DE4 SOLVER:
 MXBW MUST BE AT LEAST  106
 
 SOLVING FOR HEAD 

 NO OUTPUT CONTROL FOR STRESS PERIOD    3   TIME STEP  140
 SOLVING FOR ZETA FOR LAYER     1 ZONE     2
 INSUFFICIENT MEMORY FOR DE4 SOLVER:
 MXBW MUST BE AT LEAST  106
 
 SOLVING FOR HEAD 

 NO OUTPUT CONTROL FOR STRESS PERIOD    3   TIME STEP  141
 SOLVING FOR ZETA FOR LAYER     1 ZONE     2
 INSUFFICIENT MEMORY FOR DE4 SOLVER:
 MXBW MUST BE AT LEAST  106
 
 SOLVING FOR HEAD 

 NO OUTPUT CONTROL FOR STRESS PERIOD    3   TIME STEP  142
 SOLVING FOR ZETA FOR LAYER     1 ZONE     2
 INSUFFICIENT MEMORY FOR DE4 SOLVER:
 MXBW MUST BE AT LEAST  106
 
 SOLVING FOR HEAD 

 NO OUTPUT CONTROL FOR STRESS PERIOD    3   TIME STEP  143
 SOLVING FOR ZETA FOR LAYER     1 ZONE     2
 INSUFFICIENT MEMORY FOR DE4 SOLVER:
 MXBW MUST BE AT LEAST  106
 
 SOLVING FOR HEAD 

 NO OUTPUT CONTROL FOR STRESS PERIOD    3   TIME STEP  144
 SOLVING FOR ZETA FOR LAYER     1 ZONE     2
 INSUFFICIENT MEMORY FOR DE4 SOLVER:
 MXBW MUST BE AT LEAST  106
 
 SOLVING FOR HEAD 

 NO OUTPUT CONTROL FOR STRESS PERIOD    3   TIME STEP  145
 SOLVING FOR ZETA FOR LAYER     1 ZONE     2
 INSUFFICIENT MEMORY FOR DE4 SOLVER:
 MXBW MUST BE AT LEAST  106
 
 SOLVING FOR HEAD 

 NO OUTPUT CONTROL FOR STRESS PERIOD    3   TIME STEP  146
 SOLVING FOR ZETA FOR LAYER     1 ZONE     2
 INSUFFICIENT MEMORY FOR DE4 SOLVER:
 MXBW MUST BE AT LEAST  106
 
 SOLVING FOR HEAD 

 NO OUTPUT CONTROL FOR STRESS PERIOD    3   TIME STEP  147
 SOLVING FOR ZETA FOR LAYER     1 ZONE     2
 INSUFFICIENT MEMORY FOR DE4 SOLVER:
 MXBW MUST BE AT LEAST  106
 
 SOLVING FOR HEAD 

 NO OUTPUT CONTROL FOR STRESS PERIOD    3   TIME STEP  148
 SOLVING FOR ZETA FOR LAYER     1 ZONE     2
 INSUFFICIENT MEMORY FOR DE4 SOLVER:
 MXBW MUST BE AT LEAST  106
 
 SOLVING FOR HEAD 

 NO OUTPUT CONTROL FOR STRESS PERIOD    3   TIME STEP  149
 SOLVING FOR ZETA FOR LAYER     1 ZONE     2
 INSUFFICIENT MEMORY FOR DE4 SOLVER:
 MXBW MUST BE AT LEAST  106
 
 SOLVING FOR HEAD 

 NO OUTPUT CONTROL FOR STRESS PERIOD    3   TIME STEP  150
 SOLVING FOR ZETA FOR LAYER     1 ZONE     2
 INSUFFICIENT MEMORY FOR DE4 SOLVER:
 MXBW MUST BE AT LEAST  106
 
 SOLVING FOR HEAD 

 NO OUTPUT CONTROL FOR STRESS PERIOD    3   TIME STEP  151
 SOLVING FOR ZETA FOR LAYER     1 ZONE     2
 INSUFFICIENT MEMORY FOR DE4 SOLVER:
 MXBW MUST BE AT LEAST  106
 
 SOLVING FOR HEAD 

 NO OUTPUT CONTROL FOR STRESS PERIOD    3   TIME STEP  152
 SOLVING FOR ZETA FOR LAYER     1 ZONE     2
 INSUFFICIENT MEMORY FOR DE4 SOLVER:
 MXBW MUST BE AT LEAST  106
 
 SOLVING FOR HEAD 

 NO OUTPUT CONTROL FOR STRESS PERIOD    3   TIME STEP  153
 SOLVING FOR ZETA FOR LAYER     1 ZONE     2
 INSUFFICIENT MEMORY FOR DE4 SOLVER:
 MXBW MUST BE AT LEAST  106
 
 SOLVING FOR HEAD 

 NO OUTPUT CONTROL FOR STRESS PERIOD    3   TIME STEP  154
 SOLVING FOR ZETA FOR LAYER     1 ZONE     2
 INSUFFICIENT MEMORY FOR DE4 SOLVER:
 MXBW MUST BE AT LEAST  106
 
 SOLVING FOR HEAD 

 NO OUTPUT CONTROL FOR STRESS PERIOD    3   TIME STEP  155
 SOLVING FOR ZETA FOR LAYER     1 ZONE     2
 INSUFFICIENT MEMORY FOR DE4 SOLVER:
 MXBW MUST BE AT LEAST  106
 
 SOLVING FOR HEAD 

 NO OUTPUT CONTROL FOR STRESS PERIOD    3   TIME STEP  156
 SOLVING FOR ZETA FOR LAYER     1 ZONE     2
 INSUFFICIENT MEMORY FOR DE4 SOLVER:
 MXBW MUST BE AT LEAST  106
 
 SOLVING FOR HEAD 

 NO OUTPUT CONTROL FOR STRESS PERIOD    3   TIME STEP  157
 SOLVING FOR ZETA FOR LAYER     1 ZONE     2
 INSUFFICIENT MEMORY FOR DE4 SOLVER:
 MXBW MUST BE AT LEAST  106
 
 SOLVING FOR HEAD 

 NO OUTPUT CONTROL FOR STRESS PERIOD    3   TIME STEP  158
 SOLVING FOR ZETA FOR LAYER     1 ZONE     2
 INSUFFICIENT MEMORY FOR DE4 SOLVER:
 MXBW MUST BE AT LEAST  106
 
 SOLVING FOR HEAD 

 NO OUTPUT CONTROL FOR STRESS PERIOD    3   TIME STEP  159
 SOLVING FOR ZETA FOR LAYER     1 ZONE     2
 INSUFFICIENT MEMORY FOR DE4 SOLVER:
 MXBW MUST BE AT LEAST  106
 
 SOLVING FOR HEAD 

 NO OUTPUT CONTROL FOR STRESS PERIOD    3   TIME STEP  160
 SOLVING FOR ZETA FOR LAYER     1 ZONE     2
 INSUFFICIENT MEMORY FOR DE4 SOLVER:
 MXBW MUST BE AT LEAST  106
 
 SOLVING FOR HEAD 

 NO OUTPUT CONTROL FOR STRESS PERIOD    3   TIME STEP  161
 SOLVING FOR ZETA FOR LAYER     1 ZONE     2
 INSUFFICIENT MEMORY FOR DE4 SOLVER:
 MXBW MUST BE AT LEAST  106
 
 SOLVING FOR HEAD 

 NO OUTPUT CONTROL FOR STRESS PERIOD    3   TIME STEP  162
 SOLVING FOR ZETA FOR LAYER     1 ZONE     2
 INSUFFICIENT MEMORY FOR DE4 SOLVER:
 MXBW MUST BE AT LEAST  106
 
 SOLVING FOR HEAD 

 NO OUTPUT CONTROL FOR STRESS PERIOD    3   TIME STEP  163
 SOLVING FOR ZETA FOR LAYER     1 ZONE     2
 INSUFFICIENT MEMORY FOR DE4 SOLVER:
 MXBW MUST BE AT LEAST  106
 
 SOLVING FOR HEAD 

 NO OUTPUT CONTROL FOR STRESS PERIOD    3   TIME STEP  164
 SOLVING FOR ZETA FOR LAYER     1 ZONE     2
 INSUFFICIENT MEMORY FOR DE4 SOLVER:
 MXBW MUST BE AT LEAST  106
 
 SOLVING FOR HEAD 

 NO OUTPUT CONTROL FOR STRESS PERIOD    3   TIME STEP  165
 SOLVING FOR ZETA FOR LAYER     1 ZONE     2
 INSUFFICIENT MEMORY FOR DE4 SOLVER:
 MXBW MUST BE AT LEAST  106
 
 SOLVING FOR HEAD 

 NO OUTPUT CONTROL FOR STRESS PERIOD    3   TIME STEP  166
 SOLVING FOR ZETA FOR LAYER     1 ZONE     2
 INSUFFICIENT MEMORY FOR DE4 SOLVER:
 MXBW MUST BE AT LEAST  106
 
 SOLVING FOR HEAD 

 NO OUTPUT CONTROL FOR STRESS PERIOD    3   TIME STEP  167
 SOLVING FOR ZETA FOR LAYER     1 ZONE     2
 INSUFFICIENT MEMORY FOR DE4 SOLVER:
 MXBW MUST BE AT LEAST  106
 
 SOLVING FOR HEAD 

 NO OUTPUT CONTROL FOR STRESS PERIOD    3   TIME STEP  168
 SOLVING FOR ZETA FOR LAYER     1 ZONE     2
 INSUFFICIENT MEMORY FOR DE4 SOLVER:
 MXBW MUST BE AT LEAST  106
 
 SOLVING FOR HEAD 

 NO OUTPUT CONTROL FOR STRESS PERIOD    3   TIME STEP  169
 SOLVING FOR ZETA FOR LAYER     1 ZONE     2
 INSUFFICIENT MEMORY FOR DE4 SOLVER:
 MXBW MUST BE AT LEAST  106
 
 SOLVING FOR HEAD 

 NO OUTPUT CONTROL FOR STRESS PERIOD    3   TIME STEP  170
 SOLVING FOR ZETA FOR LAYER     1 ZONE     2
 INSUFFICIENT MEMORY FOR DE4 SOLVER:
 MXBW MUST BE AT LEAST  106
 
 SOLVING FOR HEAD 

 NO OUTPUT CONTROL FOR STRESS PERIOD    3   TIME STEP  171
 SOLVING FOR ZETA FOR LAYER     1 ZONE     2
 INSUFFICIENT MEMORY FOR DE4 SOLVER:
 MXBW MUST BE AT LEAST  106
 
 SOLVING FOR HEAD 

 NO OUTPUT CONTROL FOR STRESS PERIOD    3   TIME STEP  172
 SOLVING FOR ZETA FOR LAYER     1 ZONE     2
 INSUFFICIENT MEMORY FOR DE4 SOLVER:
 MXBW MUST BE AT LEAST  106
 
 SOLVING FOR HEAD 

 NO OUTPUT CONTROL FOR STRESS PERIOD    3   TIME STEP  173
 SOLVING FOR ZETA FOR LAYER     1 ZONE     2
 INSUFFICIENT MEMORY FOR DE4 SOLVER:
 MXBW MUST BE AT LEAST  106
 
 SOLVING FOR HEAD 

 NO OUTPUT CONTROL FOR STRESS PERIOD    3   TIME STEP  174
 SOLVING FOR ZETA FOR LAYER     1 ZONE     2
 INSUFFICIENT MEMORY FOR DE4 SOLVER:
 MXBW MUST BE AT LEAST  106
 
 SOLVING FOR HEAD 

 NO OUTPUT CONTROL FOR STRESS PERIOD    3   TIME STEP  175
 SOLVING FOR ZETA FOR LAYER     1 ZONE     2
 INSUFFICIENT MEMORY FOR DE4 SOLVER:
 MXBW MUST BE AT LEAST  106
 
 SOLVING FOR HEAD 

 NO OUTPUT CONTROL FOR STRESS PERIOD    3   TIME STEP  176
 SOLVING FOR ZETA FOR LAYER     1 ZONE     2
 INSUFFICIENT MEMORY FOR DE4 SOLVER:
 MXBW MUST BE AT LEAST  106
 
 SOLVING FOR HEAD 

 NO OUTPUT CONTROL FOR STRESS PERIOD    3   TIME STEP  177
 SOLVING FOR ZETA FOR LAYER     1 ZONE     2
 INSUFFICIENT MEMORY FOR DE4 SOLVER:
 MXBW MUST BE AT LEAST  106
 
 SOLVING FOR HEAD 

 NO OUTPUT CONTROL FOR STRESS PERIOD    3   TIME STEP  178
 SOLVING FOR ZETA FOR LAYER     1 ZONE     2
 INSUFFICIENT MEMORY FOR DE4 SOLVER:
 MXBW MUST BE AT LEAST  106
 
 SOLVING FOR HEAD 

 NO OUTPUT CONTROL FOR STRESS PERIOD    3   TIME STEP  179
 SOLVING FOR ZETA FOR LAYER     1 ZONE     2
 INSUFFICIENT MEMORY FOR DE4 SOLVER:
 MXBW MUST BE AT LEAST  106
 
 SOLVING FOR HEAD 

 OUTPUT CONTROL FOR STRESS PERIOD    3   TIME STEP  180
    PRINT BUDGET
    SAVE HEAD FOR ALL LAYERS
 SOLVING FOR ZETA FOR LAYER     1 ZONE     2
 INSUFFICIENT MEMORY FOR DE4 SOLVER:
 MXBW MUST BE AT LEAST  106
 UBUDSV SAVING "      ZETASRF  1" ON UNIT 55 AT TIME STEP180, STRESS PERIOD    3


                      VOLUMETRIC SWI ZONE BUDGET FOR ENTIRE MODEL
                     AT END OF TIME STEP  180 IN STRESS PERIOD   3
                                      ZONE     1
  -----------------------------------------------------------------------------------

        CUMULATIVE VOLUMES      L**3       RATES FOR THIS TIME STEP      L**3/T
        ------------------                 ------------------------

              IN:                                      IN:
              ---                                      ---
             BOUNDARIES =   491373440.0000            BOUNDARIES =        5858.7690
          CONSTANT HEAD =           0.0000         CONSTANT HEAD =           0.0000
            ZONE CHANGE =     7965907.5000           ZONE CHANGE =           0.0000
       ZONE CHG TIP/TOE =    61564576.0000      ZONE CHG TIP/TOE =           0.0000
            ZONE MIXING =           0.0000           ZONE MIXING =           0.0000

               TOTAL IN =   560903936.0000              TOTAL IN =        5858.7690

             OUT:                                     OUT:
             ----                                     ----
             BOUNDARIES =   341225664.0000            BOUNDARIES =        5861.7627
          CONSTANT HEAD =           0.0000         CONSTANT HEAD =           0.0000
            ZONE CHANGE =    94032848.0000           ZONE CHANGE =           0.0000
       ZONE CHG TIP/TOE =     1242196.5000      ZONE CHG TIP/TOE =           0.0000
            ZONE MIXING =           0.0000           ZONE MIXING =           0.0000

              TOTAL OUT =   436500704.0000             TOTAL OUT =        5861.7627

               IN - OUT =   124403232.0000              IN - OUT =          -2.9937

    PERCENT DISCREPANCY =          24.95     PERCENT DISCREPANCY =          -0.05



                      VOLUMETRIC SWI ZONE BUDGET FOR ENTIRE MODEL
                     AT END OF TIME STEP  180 IN STRESS PERIOD   3
                                      ZONE     2
  -----------------------------------------------------------------------------------

        CUMULATIVE VOLUMES      L**3       RATES FOR THIS TIME STEP      L**3/T
        ------------------                 ------------------------

              IN:                                      IN:
              ---                                      ---
             BOUNDARIES =     1051265.3750            BOUNDARIES =           2.9940
          CONSTANT HEAD =           0.0000         CONSTANT HEAD =           0.0000
            ZONE CHANGE =    32763186.0000           ZONE CHANGE =           0.0000
       ZONE CHG TIP/TOE =    78124024.0000      ZONE CHG TIP/TOE =           0.0000
            ZONE MIXING =           0.0000           ZONE MIXING =           0.0000

               TOTAL IN =   111938480.0000              TOTAL IN =           2.9940

             OUT:                                     OUT:
             ----                                     ----
             BOUNDARIES =   151210928.0000            BOUNDARIES =       1.5712E-38
          CONSTANT HEAD =           0.0000         CONSTANT HEAD =           0.0000
            ZONE CHANGE =    84847720.0000           ZONE CHANGE =           0.0000
       ZONE CHG TIP/TOE =      294963.1250      ZONE CHG TIP/TOE =           0.0000
            ZONE MIXING =           0.0000           ZONE MIXING =           0.0000

              TOTAL OUT =   236353616.0000             TOTAL OUT =       1.5712E-38

               IN - OUT =  -124415136.0000              IN - OUT =           2.9940

    PERCENT DISCREPANCY =         -71.44     PERCENT DISCREPANCY =         200.00


 HEAD WILL BE SAVED ON UNIT   51 AT END OF TIME STEP  180, STRESS PERIOD    3
1
  VOLUMETRIC BUDGET FOR ENTIRE MODEL AT END OF TIME STEP  180, STRESS PERIOD   3
  ------------------------------------------------------------------------------

     CUMULATIVE VOLUMES      L**3       RATES FOR THIS TIME STEP      L**3/T
     ------------------                 ------------------------

           IN:                                      IN:
           ---                                      ---
             STORAGE =           0.0000               STORAGE =           0.0000
       CONSTANT HEAD =           0.0000         CONSTANT HEAD =           0.0000
          SWIADDTOCH =           0.0000            SWIADDTOCH =           0.0000
     HEAD DEP BOUNDS =          17.7315       HEAD DEP BOUNDS =       2.1070E-04
            RECHARGE =   492433280.0000              RECHARGE =        5861.7627

            TOTAL IN =   492433312.0000              TOTAL IN =        5861.7627

          OUT:                                     OUT:
          ----                                     ----
             STORAGE =           0.0000               STORAGE =           0.0000
       CONSTANT HEAD =           0.0000         CONSTANT HEAD =           0.0000
          SWIADDTOCH =           0.0000            SWIADDTOCH =           0.0000
     HEAD DEP BOUNDS =   492433280.0000       HEAD DEP BOUNDS =        5861.7627
            RECHARGE =           0.0000              RECHARGE =           0.0000

           TOTAL OUT =   492433280.0000             TOTAL OUT =        5861.7627

            IN - OUT =          32.0000              IN - OUT =           0.0000

 PERCENT DISCREPANCY =           0.00     PERCENT DISCREPANCY =           0.00






         TIME SUMMARY AT END OF TIME STEP  180 IN STRESS PERIOD    3
                    SECONDS     MINUTES      HOURS       DAYS        YEARS
                    -----------------------------------------------------------
   TIME STEP LENGTH 3.15576E+06  52596.      876.60      36.525     0.10000    
 STRESS PERIOD TIME 5.68036E+08 9.46726E+06 1.57788E+05  6574.5      18.000    
         TOTAL TIME 7.25822E+09 1.20970E+08 2.01617E+06  84007.      230.00    
1

 Run end date and time (yyyy/mm/dd hh:mm:ss): 2017/12/04  2:06:49
 Elapsed run time: 32.384 Seconds

